sim-outorder: SimpleScalar/Alpha Tool Set version 3.0 of August, 2003.
Copyright (c) 1994-2003 by Todd M. Austin, Ph.D. and SimpleScalar, LLC.
All Rights Reserved. This version of SimpleScalar is licensed for academic
non-commercial use.  No portion of this work may be used by any commercial
entity, or for any commercial purpose, without the prior written permission
of SimpleScalar, LLC (info@simplescalar.com).

warning: section `.comment' ignored...
sim: command line: /home/jai/Desktop/simplescalar/simplesim-RMNM-Flex/sim-outorder -cache:il1 il1:1024:16:8:t:1:8192:131072:1 -cache:dl1 dl1:512:16:1:l -cache:dl2 dl2:1024:32:2:l -cache:dl3 dl3:4096:32:4:l -max:inst 50000000 -fastfwd 20000000 -redir:sim cache_RMNM-Flex_8.txt ../../spec2000binaries/lucas00.peak.ev6 

sim: simulation started @ Sun Dec  6 09:43:12 2015, options follow:

sim-outorder: This simulator implements a very detailed out-of-order issue
superscalar processor with a two-level memory system and speculative
execution support.  This simulator is a performance simulator, tracking the
latency of all pipeline operations.

# -config                     # load configuration from a file
# -dumpconfig                 # dump configuration to a file
# -h                    false # print help message    
# -v                    false # verbose operation     
# -d                    false # enable debug message  
# -i                    false # start in Dlite debugger
-seed                       1 # random number generator seed (0 for timer seed)
# -q                    false # initialize and terminate immediately
# -chkpt               <null> # restore EIO trace execution from <fname>
# -redir:sim     cache_RMNM-Flex_8.txt # redirect simulator output to file (non-interactive only)
# -redir:prog          <null> # redirect simulated program output to file
-nice                       0 # simulator scheduling priority
-max:inst            50000000 # maximum number of inst's to execute
-fastfwd             20000000 # number of insts skipped before timing starts
# -ptrace              <null> # generate pipetrace, i.e., <fname|stdout|stderr> <range>
-fetch:ifqsize              4 # instruction fetch queue size (in insts)
-fetch:mplat                3 # extra branch mis-prediction latency
-fetch:speed                1 # speed of front-end of machine relative to execution core
-bpred                  bimod # branch predictor type {nottaken|taken|perfect|bimod|2lev|comb}
-bpred:bimod     2048 # bimodal predictor config (<table size>)
-bpred:2lev      1 1024 8 0 # 2-level predictor config (<l1size> <l2size> <hist_size> <xor>)
-bpred:comb      1024 # combining predictor config (<meta_table_size>)
-bpred:ras                  8 # return address stack size (0 for no return stack)
-bpred:btb       512 4 # BTB config (<num_sets> <associativity>)
# -bpred:spec_update       <null> # speculative predictors update in {ID|WB} (default non-spec)
-decode:width               4 # instruction decode B/W (insts/cycle)
-issue:width                4 # instruction issue B/W (insts/cycle)
-issue:inorder          false # run pipeline with in-order issue
-issue:wrongpath         true # issue instructions down wrong execution paths
-commit:width               4 # instruction commit B/W (insts/cycle)
-ruu:size                  16 # register update unit (RUU) size
-lsq:size                   8 # load/store queue (LSQ) size
-cache:dl1       dl1:512:16:1:l # l1 data cache config, i.e., {<config>|none}
-cache:dl1lat               1 # l1 data cache hit latency (in cycles)
-cache:dl2       dl2:1024:32:2:l # l2 data cache config, i.e., {<config>|none}
-cache:dl2lat               6 # l2 data cache hit latency (in cycles)
-cache:dl3       dl3:4096:32:4:l # l3 data cache config, i.e., {<config>|none}
-cache:dl3lat              10 # l3 data cache hit latency (in cycles)
-cache:il1       il1:1024:16:8:t:1:8192:131072:1 # l1 inst cache config, i.e., {<config>|dl1|dl2|none}
-cache:il1lat               1 # l1 instruction cache hit latency (in cycles)
-cache:il2                dl2 # l2 instruction cache config, i.e., {<config>|dl2|none}
-cache:il2lat               6 # l2 instruction cache hit latency (in cycles)
-cache:il3                dl3 # l3 instruction cache config, i.e., {<config>|dl3|none}
-cache:il3lat              10 # l3 instruction cache hit latency (in cycles)
-cache:flush            false # flush caches on system calls
-cache:icompress        false # convert 64-bit inst addresses to 32-bit inst equivalents
-mem:lat         18 2 # memory access latency (<first_chunk> <inter_chunk>)
-mem:width                  8 # memory access bus width (in bytes)
-tlb:itlb        itlb:16:4096:4:l # instruction TLB config, i.e., {<config>|none}
-tlb:dtlb        dtlb:32:4096:4:l # data TLB config, i.e., {<config>|none}
-tlb:lat                   30 # inst/data TLB miss latency (in cycles)
-res:ialu                   4 # total number of integer ALU's available
-res:imult                  1 # total number of integer multiplier/dividers available
-res:memport                2 # total number of memory system ports available (to CPU)
-res:fpalu                  4 # total number of floating point ALU's available
-res:fpmult                 1 # total number of floating point multiplier/dividers available
# -pcstat              <null> # profile stat(s) against text addr's (mult uses ok)
-bugcompat              false # operate in backward-compatible bugs mode (for testing only)

  Pipetrace range arguments are formatted as follows:

    {{@|#}<start>}:{{@|#|+}<end>}

  Both ends of the range are optional, if neither are specified, the entire
  execution is traced.  Ranges that start with a `@' designate an address
  range to be traced, those that start with an `#' designate a cycle count
  range.  All other range values represent an instruction count range.  The
  second argument, if specified with a `+', indicates a value relative
  to the first argument, e.g., 1000:+100 == 1000:1100.  Program symbols may
  be used in all contexts.

    Examples:   -ptrace FOO.trc #0:#1000
                -ptrace BAR.trc @2000:
                -ptrace BLAH.trc :1500
                -ptrace UXXE.trc :
                -ptrace FOOBAR.trc @main:+278

  Branch predictor configuration examples for 2-level predictor:
    Configurations:   N, M, W, X
      N   # entries in first level (# of shift register(s))
      W   width of shift register(s)
      M   # entries in 2nd level (# of counters, or other FSM)
      X   (yes-1/no-0) xor history and address for 2nd level index
    Sample predictors:
      GAg     : 1, W, 2^W, 0
      GAp     : 1, W, M (M > 2^W), 0
      PAg     : N, W, 2^W, 0
      PAp     : N, W, M (M == 2^(N+W)), 0
      gshare  : 1, W, 2^W, 1
  Predictor `comb' combines a bimodal and a 2-level predictor.

  The cache config parameter <config> has the following format:

    <name>:<nsets>:<bsize>:<assoc>:<repl>

    <name>   - name of the cache being defined
    <nsets>  - number of sets in the cache
    <bsize>  - block size of the cache
    <assoc>  - associativity of the cache
    <repl>   - block replacement strategy, 'l'-LRU, 'f'-FIFO, 'r'-random

    Examples:   -cache:dl1 dl1:4096:32:1:l
                -dtlb dtlb:128:4096:32:r

  Cache levels can be unified by pointing a level of the instruction cache
  hierarchy at the data cache hiearchy using the "dl1" and "dl2" cache
  configuration arguments.  Most sensible combinations are supported, e.g.,

    A unified l2 cache (il2 is pointed at dl2):
      -cache:il1 il1:128:64:1:l -cache:il2 dl2
      -cache:dl1 dl1:256:32:1:l -cache:dl2 ul2:1024:64:2:l

    Or, a fully unified cache hierarchy (il1 pointed at dl1):
      -cache:il1 dl1
      -cache:dl1 ul1:256:32:1:l -cache:dl2 ul2:1024:64:2:l



sim: ** fast forwarding 20000000 insts **
warning: partially supported sigprocmask() call...
warning: partially supported sigaction() call...
warning: unsupported setsysinfo() call...
sim: ** starting performance simulation **
smaller tournament 1, insn 131015, accesses_since_last 131073, miss_sat 0, miss_rat 0.000389
smaller tournament 1 outcome, insn 139211, accesses 8193, hits 0,    config 7 -way
smaller tournament 2, insn 270282, accesses_since_last 131073, miss_sat 0, miss_rat 0.000189
smaller tournament 2 outcome, insn 278475, accesses 8193, hits 0,    config 6 -way
smaller tournament 3, insn 409547, accesses_since_last 131073, miss_sat 0, miss_rat 0.000125
smaller tournament 3 outcome, insn 417741, accesses 8193, hits 0,    config 5 -way
smaller tournament 4, insn 548814, accesses_since_last 131073, miss_sat 0, miss_rat 0.000093
smaller tournament 4 outcome, insn 557006, accesses 8193, hits 0,    config 4 -way
smaller tournament 5, insn 688079, accesses_since_last 131073, miss_sat 0, miss_rat 0.000074
smaller tournament 5 outcome, insn 696273, accesses 8193, hits 0,    config 3 -way
smaller tournament 6, insn 827345, accesses_since_last 131073, miss_sat 0, miss_rat 0.000062
smaller tournament 6 outcome, insn 835539, accesses 8193, hits 0,    config 2 -way
smaller tournament 7, insn 966611, accesses_since_last 131073, miss_sat 0, miss_rat 0.000053
smaller tournament 7 outcome, insn 974804, accesses 8193, hits 0,    config 1 -way

sim: ** simulation statistics **
sim_num_insn               50000002 # total number of instructions committed
sim_num_refs                9473683 # total number of loads and stores committed
sim_num_loads               9210526 # total number of loads committed
sim_num_stores          263157.0000 # total number of stores committed
sim_num_branches            2368419 # total number of branches committed
sim_elapsed_time                 64 # total simulation time in seconds
sim_inst_rate           781250.0312 # simulation speed (in insts/sec)
sim_total_insn             50000005 # total number of instructions executed
sim_total_refs              9473686 # total number of loads and stores executed
sim_total_loads             9210529 # total number of loads executed
sim_total_stores        263157.0000 # total number of stores executed
sim_total_branches          2368419 # total number of branches executed
sim_cycle                  26592567 # total simulation time in cycles
sim_IPC                      1.8802 # instructions per cycle
sim_CPI                      0.5319 # cycles per instruction
sim_exec_BW                  1.8802 # total instructions (mis-spec + committed) per cycle
sim_IPB                     21.1111 # instruction per branch
Cache_Config_Ratio     <error: variable is undefined> # Cache_Run_Ratio
IFQ_count                 105376920 # cumulative IFQ occupancy
IFQ_fcount                 25864333 # cumulative IFQ full count
ifq_occupancy                3.9626 # avg IFQ occupancy (insn's)
ifq_rate                     1.8802 # avg IFQ dispatch rate (insn/cycle)
ifq_latency                  2.1075 # avg IFQ occupant latency (cycle's)
ifq_full                     0.9726 # fraction of time (cycle's) IFQ was full
RUU_count                 424472858 # cumulative RUU occupancy
RUU_fcount                 25595535 # cumulative RUU full count
ruu_occupancy               15.9621 # avg RUU occupancy (insn's)
ruu_rate                     1.8802 # avg RUU dispatch rate (insn/cycle)
ruu_latency                  8.4895 # avg RUU occupant latency (cycle's)
ruu_full                     0.9625 # fraction of time (cycle's) RUU was full
LSQ_count                  76866905 # cumulative LSQ occupancy
LSQ_fcount                   265213 # cumulative LSQ full count
lsq_occupancy                2.8905 # avg LSQ occupancy (insn's)
lsq_rate                     1.8802 # avg LSQ dispatch rate (insn/cycle)
lsq_latency                  1.5373 # avg LSQ occupant latency (cycle's)
lsq_full                     0.0100 # fraction of time (cycle's) LSQ was full
sim_slip                  560813360 # total number of slip cycles
avg_sim_slip                11.2163 # the average slip between issue and retirement
bpred_bimod.lookups         2368420 # total number of bpred lookups
bpred_bimod.updates         2368418 # total number of updates
bpred_bimod.addr_hits       2368412 # total number of address-predicted hits
bpred_bimod.dir_hits        2368415 # total number of direction-predicted hits (includes addr-hits)
bpred_bimod.misses                3 # total number of misses
bpred_bimod.jr_hits          526315 # total number of address-predicted hits for JR's
bpred_bimod.jr_seen          526315 # total number of JR's seen
bpred_bimod.jr_non_ras_hits.PP            0 # total number of address-predicted hits for non-RAS JR's
bpred_bimod.jr_non_ras_seen.PP            0 # total number of non-RAS JR's seen
bpred_bimod.bpred_addr_rate    1.0000 # branch address-prediction rate (i.e., addr-hits/updates)
bpred_bimod.bpred_dir_rate    1.0000 # branch direction-prediction rate (i.e., all-hits/updates)
bpred_bimod.bpred_jr_rate    1.0000 # JR address-prediction rate (i.e., JR addr-hits/JRs seen)
bpred_bimod.bpred_jr_non_ras_rate.PP <error: divide by zero> # non-RAS JR addr-pred rate (ie, non-RAS JR hits/JRs seen)
bpred_bimod.retstack_pushes       526316 # total number of address pushed onto ret-addr stack
bpred_bimod.retstack_pops       526316 # total number of address popped off of ret-addr stack
bpred_bimod.used_ras.PP       526315 # total number of RAS predictions used
bpred_bimod.ras_hits.PP       526315 # total number of RAS hits
bpred_bimod.ras_rate.PP    1.0000 # RAS prediction rate (i.e., RAS hits/used RAS)
il1.reconfigurations              7 # total number of reconfigurations
il1.tournaments                   7 # total number of tournaments
il1. Power-Saving      49860793.0000 # Power Saving 
il1. Smaller Cache Cnt      49860792 # SCC 
il1. Largerer Cache Cnt             0 # LCC 
il1.accesses               50000058 # total number of accesses
il1.hits                   50000007 # total number of hits
il1.misses                       51 # total number of misses
il1.mnm_misses                    0 # total number MNM of misses
il1.replacements                  0 # total number of replacements
il1.writebacks                    0 # total number of writebacks
il1.invalidations                 0 # total number of invalidations
il1.miss_rate                0.0000 # miss rate (i.e., misses/ref)
il1.repl_rate                0.0000 # replacement rate (i.e., repls/ref)
il1.wb_rate                  0.0000 # writeback rate (i.e., wrbks/ref)
il1.inv_rate                 0.0000 # invalidation rate (i.e., invs/ref)
dl1.accesses                9473683 # total number of accesses
dl1.hits                    9265992 # total number of hits
dl1.misses                   207691 # total number of misses
dl1.mnm_misses                    0 # total number MNM of misses
dl1.replacements             207179 # total number of replacements
dl1.writebacks               135847 # total number of writebacks
dl1.invalidations                 0 # total number of invalidations
dl1.miss_rate                0.0219 # miss rate (i.e., misses/ref)
dl1.repl_rate                0.0219 # replacement rate (i.e., repls/ref)
dl1.wb_rate                  0.0143 # writeback rate (i.e., wrbks/ref)
dl1.inv_rate                 0.0000 # invalidation rate (i.e., invs/ref)
dl2.accesses                 343589 # total number of accesses
dl2.hits                     277631 # total number of hits
dl2.misses                    65958 # total number of misses
dl2.mnm_misses                    0 # total number MNM of misses
dl2.replacements              63910 # total number of replacements
dl2.writebacks                63883 # total number of writebacks
dl2.invalidations                 0 # total number of invalidations
dl2.miss_rate                0.1920 # miss rate (i.e., misses/ref)
dl2.repl_rate                0.1860 # replacement rate (i.e., repls/ref)
dl2.wb_rate                  0.1859 # writeback rate (i.e., wrbks/ref)
dl2.inv_rate                 0.0000 # invalidation rate (i.e., invs/ref)
dl3.accesses                 129841 # total number of accesses
dl3.hits                      63883 # total number of hits
dl3.misses                    65958 # total number of misses
dl3.mnm_misses                    0 # total number MNM of misses
dl3.replacements              49574 # total number of replacements
dl3.writebacks                49406 # total number of writebacks
dl3.invalidations                 0 # total number of invalidations
dl3.miss_rate                0.5080 # miss rate (i.e., misses/ref)
dl3.repl_rate                0.3818 # replacement rate (i.e., repls/ref)
dl3.wb_rate                  0.3805 # writeback rate (i.e., wrbks/ref)
dl3.inv_rate                 0.0000 # invalidation rate (i.e., invs/ref)
itlb.accesses              50000058 # total number of accesses
itlb.hits                  50000055 # total number of hits
itlb.misses                       3 # total number of misses
itlb.mnm_misses                   0 # total number MNM of misses
itlb.replacements                 0 # total number of replacements
itlb.writebacks                   0 # total number of writebacks
itlb.invalidations                0 # total number of invalidations
itlb.miss_rate               0.0000 # miss rate (i.e., misses/ref)
itlb.repl_rate               0.0000 # replacement rate (i.e., repls/ref)
itlb.wb_rate                 0.0000 # writeback rate (i.e., wrbks/ref)
itlb.inv_rate                0.0000 # invalidation rate (i.e., invs/ref)
dtlb.accesses               9473683 # total number of accesses
dtlb.hits                   9473161 # total number of hits
dtlb.misses                     522 # total number of misses
dtlb.mnm_misses                   0 # total number MNM of misses
dtlb.replacements               394 # total number of replacements
dtlb.writebacks                   0 # total number of writebacks
dtlb.invalidations                0 # total number of invalidations
dtlb.miss_rate               0.0001 # miss rate (i.e., misses/ref)
dtlb.repl_rate               0.0000 # replacement rate (i.e., repls/ref)
dtlb.wb_rate                 0.0000 # writeback rate (i.e., wrbks/ref)
dtlb.inv_rate                0.0000 # invalidation rate (i.e., invs/ref)
sim_invalid_addrs                 0 # total non-speculative bogus addresses seen (debug var)
ld_text_base           0x0120000000 # program text (code) segment base
ld_text_size                 851968 # program text (code) size in bytes
ld_data_base           0x0140000000 # program initialized data segment base
ld_data_size                 202720 # program init'ed `.data' and uninit'ed `.bss' size in bytes
ld_stack_base          0x011ff9b000 # program stack segment base (highest address in stack)
ld_stack_size                 16384 # program initial stack size
ld_prog_entry          0x0120019b10 # program entry point (initial PC)
ld_environ_base        0x011ff97000 # program environment base address address
ld_target_big_endian              0 # target executable endian-ness, non-zero if big endian
mem.page_count                  502 # total number of pages allocated
mem.page_mem                  4016k # total size of memory pages allocated
mem.ptab_misses                 656 # total first level page table misses
mem.ptab_accesses         339489878 # total page table accesses
mem.ptab_miss_rate           0.0000 # first level page table miss rate

