sim-outorder: SimpleScalar/Alpha Tool Set version 3.0 of August, 2003.
Copyright (c) 1994-2003 by Todd M. Austin, Ph.D. and SimpleScalar, LLC.
All Rights Reserved. This version of SimpleScalar is licensed for academic
non-commercial use.  No portion of this work may be used by any commercial
entity, or for any commercial purpose, without the prior written permission
of SimpleScalar, LLC (info@simplescalar.com).

warning: section `.comment' ignored...
sim: command line: /home/jai/Desktop/simplescalar/simplesim-RMNM-Flex/sim-outorder -cache:il1 il1:1024:32:16:t:1:8192:131072:1 -cache:dl1 dl1:512:32:16:l -cache:dl2 dl2:1024:64:4:l -cache:dl3 dl3:4096:64:8:l -max:inst 50000000 -fastfwd 20000000 -redir:sim cache_RMNM-Flex_6.txt ../../spec2000binaries/vortex00.peak.ev6 vortex.lgred.raw 

sim: simulation started @ Sun Dec  6 05:51:13 2015, options follow:

sim-outorder: This simulator implements a very detailed out-of-order issue
superscalar processor with a two-level memory system and speculative
execution support.  This simulator is a performance simulator, tracking the
latency of all pipeline operations.

# -config                     # load configuration from a file
# -dumpconfig                 # dump configuration to a file
# -h                    false # print help message    
# -v                    false # verbose operation     
# -d                    false # enable debug message  
# -i                    false # start in Dlite debugger
-seed                       1 # random number generator seed (0 for timer seed)
# -q                    false # initialize and terminate immediately
# -chkpt               <null> # restore EIO trace execution from <fname>
# -redir:sim     cache_RMNM-Flex_6.txt # redirect simulator output to file (non-interactive only)
# -redir:prog          <null> # redirect simulated program output to file
-nice                       0 # simulator scheduling priority
-max:inst            50000000 # maximum number of inst's to execute
-fastfwd             20000000 # number of insts skipped before timing starts
# -ptrace              <null> # generate pipetrace, i.e., <fname|stdout|stderr> <range>
-fetch:ifqsize              4 # instruction fetch queue size (in insts)
-fetch:mplat                3 # extra branch mis-prediction latency
-fetch:speed                1 # speed of front-end of machine relative to execution core
-bpred                  bimod # branch predictor type {nottaken|taken|perfect|bimod|2lev|comb}
-bpred:bimod     2048 # bimodal predictor config (<table size>)
-bpred:2lev      1 1024 8 0 # 2-level predictor config (<l1size> <l2size> <hist_size> <xor>)
-bpred:comb      1024 # combining predictor config (<meta_table_size>)
-bpred:ras                  8 # return address stack size (0 for no return stack)
-bpred:btb       512 4 # BTB config (<num_sets> <associativity>)
# -bpred:spec_update       <null> # speculative predictors update in {ID|WB} (default non-spec)
-decode:width               4 # instruction decode B/W (insts/cycle)
-issue:width                4 # instruction issue B/W (insts/cycle)
-issue:inorder          false # run pipeline with in-order issue
-issue:wrongpath         true # issue instructions down wrong execution paths
-commit:width               4 # instruction commit B/W (insts/cycle)
-ruu:size                  16 # register update unit (RUU) size
-lsq:size                   8 # load/store queue (LSQ) size
-cache:dl1       dl1:512:32:16:l # l1 data cache config, i.e., {<config>|none}
-cache:dl1lat               1 # l1 data cache hit latency (in cycles)
-cache:dl2       dl2:1024:64:4:l # l2 data cache config, i.e., {<config>|none}
-cache:dl2lat               6 # l2 data cache hit latency (in cycles)
-cache:dl3       dl3:4096:64:8:l # l3 data cache config, i.e., {<config>|none}
-cache:dl3lat              10 # l3 data cache hit latency (in cycles)
-cache:il1       il1:1024:32:16:t:1:8192:131072:1 # l1 inst cache config, i.e., {<config>|dl1|dl2|none}
-cache:il1lat               1 # l1 instruction cache hit latency (in cycles)
-cache:il2                dl2 # l2 instruction cache config, i.e., {<config>|dl2|none}
-cache:il2lat               6 # l2 instruction cache hit latency (in cycles)
-cache:il3                dl3 # l3 instruction cache config, i.e., {<config>|dl3|none}
-cache:il3lat              10 # l3 instruction cache hit latency (in cycles)
-cache:flush            false # flush caches on system calls
-cache:icompress        false # convert 64-bit inst addresses to 32-bit inst equivalents
-mem:lat         18 2 # memory access latency (<first_chunk> <inter_chunk>)
-mem:width                  8 # memory access bus width (in bytes)
-tlb:itlb        itlb:16:4096:4:l # instruction TLB config, i.e., {<config>|none}
-tlb:dtlb        dtlb:32:4096:4:l # data TLB config, i.e., {<config>|none}
-tlb:lat                   30 # inst/data TLB miss latency (in cycles)
-res:ialu                   4 # total number of integer ALU's available
-res:imult                  1 # total number of integer multiplier/dividers available
-res:memport                2 # total number of memory system ports available (to CPU)
-res:fpalu                  4 # total number of floating point ALU's available
-res:fpmult                 1 # total number of floating point multiplier/dividers available
# -pcstat              <null> # profile stat(s) against text addr's (mult uses ok)
-bugcompat              false # operate in backward-compatible bugs mode (for testing only)

  Pipetrace range arguments are formatted as follows:

    {{@|#}<start>}:{{@|#|+}<end>}

  Both ends of the range are optional, if neither are specified, the entire
  execution is traced.  Ranges that start with a `@' designate an address
  range to be traced, those that start with an `#' designate a cycle count
  range.  All other range values represent an instruction count range.  The
  second argument, if specified with a `+', indicates a value relative
  to the first argument, e.g., 1000:+100 == 1000:1100.  Program symbols may
  be used in all contexts.

    Examples:   -ptrace FOO.trc #0:#1000
                -ptrace BAR.trc @2000:
                -ptrace BLAH.trc :1500
                -ptrace UXXE.trc :
                -ptrace FOOBAR.trc @main:+278

  Branch predictor configuration examples for 2-level predictor:
    Configurations:   N, M, W, X
      N   # entries in first level (# of shift register(s))
      W   width of shift register(s)
      M   # entries in 2nd level (# of counters, or other FSM)
      X   (yes-1/no-0) xor history and address for 2nd level index
    Sample predictors:
      GAg     : 1, W, 2^W, 0
      GAp     : 1, W, M (M > 2^W), 0
      PAg     : N, W, 2^W, 0
      PAp     : N, W, M (M == 2^(N+W)), 0
      gshare  : 1, W, 2^W, 1
  Predictor `comb' combines a bimodal and a 2-level predictor.

  The cache config parameter <config> has the following format:

    <name>:<nsets>:<bsize>:<assoc>:<repl>

    <name>   - name of the cache being defined
    <nsets>  - number of sets in the cache
    <bsize>  - block size of the cache
    <assoc>  - associativity of the cache
    <repl>   - block replacement strategy, 'l'-LRU, 'f'-FIFO, 'r'-random

    Examples:   -cache:dl1 dl1:4096:32:1:l
                -dtlb dtlb:128:4096:32:r

  Cache levels can be unified by pointing a level of the instruction cache
  hierarchy at the data cache hiearchy using the "dl1" and "dl2" cache
  configuration arguments.  Most sensible combinations are supported, e.g.,

    A unified l2 cache (il2 is pointed at dl2):
      -cache:il1 il1:128:64:1:l -cache:il2 dl2
      -cache:dl1 dl1:256:32:1:l -cache:dl2 ul2:1024:64:2:l

    Or, a fully unified cache hierarchy (il1 pointed at dl1):
      -cache:il1 dl1
      -cache:dl1 ul1:256:32:1:l -cache:dl2 ul2:1024:64:2:l



sim: ** fast forwarding 20000000 insts **
sim: ** starting performance simulation **
smaller tournament 1, insn 126680, accesses_since_last 131073, miss_sat 0, miss_rat 0.007339
smaller tournament 1 outcome, insn 134121, accesses 8193, hits 0,    config 15 -way
larger tournament 2, insn 141844, accesses_since_last 8300,      miss_sat 2, miss_rat 0.008017
larger tournament 2 outcome, insn 149567, accesses 8193, hits 0, config 15 -way
larger tournament 3, insn 167483, accesses_since_last 18804,      miss_sat 2, miss_rat 0.007527
larger tournament 3 outcome, insn 175207, accesses 8193, hits 0, config 15 -way
larger tournament 4, insn 223807, accesses_since_last 50057,      miss_sat 2, miss_rat 0.006593
larger tournament 4 outcome, insn 231596, accesses 8193, hits 0, config 15 -way
larger tournament 5, insn 251751, accesses_since_last 20371,      miss_sat 2, miss_rat 0.006018
larger tournament 5 outcome, insn 259510, accesses 8193, hits 0, config 15 -way
larger tournament 6, insn 271668, accesses_since_last 12506,      miss_sat 2, miss_rat 0.006268
larger tournament 6 outcome, insn 279677, accesses 8193, hits 0, config 15 -way
larger tournament 7, insn 329645, accesses_since_last 50896,      miss_sat 2, miss_rat 0.005297
larger tournament 7 outcome, insn 337227, accesses 8193, hits 0, config 15 -way
larger tournament 8, insn 420500, accesses_since_last 88494,      miss_sat 2, miss_rat 0.004305
larger tournament 8 outcome, insn 428132, accesses 8193, hits 0, config 15 -way
larger tournament 9, insn 434800, accesses_since_last 7209,      miss_sat 2, miss_rat 0.004251
larger tournament 9 outcome, insn 442335, accesses 8193, hits 0, config 15 -way
larger tournament 10, insn 448364, accesses_since_last 6352,      miss_sat 2, miss_rat 0.004451
larger tournament 10 outcome, insn 456396, accesses 8193, hits 0, config 15 -way
larger tournament 11, insn 467259, accesses_since_last 10935,      miss_sat 2, miss_rat 0.004288
larger tournament 11 outcome, insn 475008, accesses 8193, hits 0, config 15 -way
larger tournament 12, insn 479170, accesses_since_last 4318,      miss_sat 2, miss_rat 0.004359
larger tournament 12 outcome, insn 486961, accesses 8193, hits 0, config 15 -way
smaller tournament 13, insn 612736, accesses_since_last 131073, miss_sat 0, miss_rat 0.003565
smaller tournament 13 outcome, insn 620497, accesses 8193, hits 0,    config 14 -way
larger tournament 14, insn 658234, accesses_since_last 42468,      miss_sat 2, miss_rat 0.003361
larger tournament 14 outcome, insn 666106, accesses 8193, hits 0, config 14 -way
larger tournament 15, insn 687057, accesses_since_last 21985,      miss_sat 2, miss_rat 0.003267
larger tournament 15 outcome, insn 694657, accesses 8193, hits 0, config 14 -way
larger tournament 16, insn 708917, accesses_since_last 15166,      miss_sat 2, miss_rat 0.003307
larger tournament 16 outcome, insn 716732, accesses 8193, hits 0, config 14 -way
larger tournament 17, insn 717408, accesses_since_last 707,      miss_sat 2, miss_rat 0.003363
larger tournament 17 outcome, insn 724408, accesses 8193, hits 0, config 14 -way
smaller tournament 18, insn 848793, accesses_since_last 131073, miss_sat 0, miss_rat 0.003115
smaller tournament 18 outcome, insn 856613, accesses 8193, hits 0,    config 13 -way
smaller tournament 19, insn 986377, accesses_since_last 131073, miss_sat 0, miss_rat 0.002724
smaller tournament 19 outcome, insn 994500, accesses 8193, hits 0,    config 12 -way
smaller tournament 20, insn 1124395, accesses_since_last 131073, miss_sat 0, miss_rat 0.002401
smaller tournament 20 outcome, insn 1132537, accesses 8193, hits 0,    config 11 -way
smaller tournament 21, insn 1262205, accesses_since_last 131073, miss_sat 0, miss_rat 0.002147
smaller tournament 21 outcome, insn 1270083, accesses 8193, hits 0,    config 10 -way
smaller tournament 22, insn 1395881, accesses_since_last 131073, miss_sat 0, miss_rat 0.001943
smaller tournament 22 outcome, insn 1403584, accesses 8193, hits 0,    config 9 -way
smaller tournament 23, insn 1532036, accesses_since_last 131073, miss_sat 0, miss_rat 0.001777
smaller tournament 23 outcome, insn 1540164, accesses 8193, hits 0,    config 8 -way
smaller tournament 24, insn 1670267, accesses_since_last 131073, miss_sat 0, miss_rat 0.001634
smaller tournament 24 outcome, insn 1678398, accesses 8193, hits 0,    config 7 -way
smaller tournament 25, insn 1808324, accesses_since_last 131073, miss_sat 0, miss_rat 0.001512
smaller tournament 25 outcome, insn 1816446, accesses 8193, hits 0,    config 6 -way
smaller tournament 26, insn 1946382, accesses_since_last 131073, miss_sat 0, miss_rat 0.001410
smaller tournament 26 outcome, insn 1954491, accesses 8193, hits 0,    config 5 -way
smaller tournament 27, insn 2084417, accesses_since_last 131073, miss_sat 0, miss_rat 0.001324
smaller tournament 27 outcome, insn 2092542, accesses 8193, hits 0,    config 4 -way
smaller tournament 28, insn 2222578, accesses_since_last 131073, miss_sat 0, miss_rat 0.001244
smaller tournament 28 outcome, insn 2230624, accesses 8193, hits 0,    config 3 -way
smaller tournament 29, insn 2360710, accesses_since_last 131073, miss_sat 0, miss_rat 0.001173
smaller tournament 29 outcome, insn 2368838, accesses 8193, hits 0,    config 2 -way
smaller tournament 30, insn 2498638, accesses_since_last 131073, miss_sat 0, miss_rat 0.001118
smaller tournament 30 outcome, insn 2498726, accesses 87, hits 2,    config 2 -way
smaller tournament 31, insn 2628729, accesses_since_last 131073, miss_sat 0, miss_rat 0.001067
smaller tournament 31 outcome, insn 2628774, accesses 45, hits 2,    config 2 -way
smaller tournament 32, insn 2758885, accesses_since_last 131073, miss_sat 0, miss_rat 0.001018
smaller tournament 32 outcome, insn 2758942, accesses 57, hits 2,    config 2 -way
larger tournament 33, insn 2881315, accesses_since_last 123595,      miss_sat 2, miss_rat 0.000981
larger tournament 33 outcome, insn 2881324, accesses 11, hits 2, config 3 -way
smaller tournament 34, insn 3010567, accesses_since_last 131073, miss_sat 0, miss_rat 0.000942
smaller tournament 34 outcome, insn 3010960, accesses 419, hits 2,    config 3 -way
smaller tournament 35, insn 3137951, accesses_since_last 131073, miss_sat 0, miss_rat 0.000904
smaller tournament 35 outcome, insn 3139757, accesses 1815, hits 2,    config 3 -way
smaller tournament 36, insn 3269774, accesses_since_last 131073, miss_sat 0, miss_rat 0.000868
smaller tournament 36 outcome, insn 3277906, accesses 8193, hits 0,    config 2 -way
larger tournament 37, insn 3326244, accesses_since_last 48790,      miss_sat 2, miss_rat 0.000855
larger tournament 37 outcome, insn 3326296, accesses 67, hits 2, config 3 -way
smaller tournament 38, insn 3454873, accesses_since_last 131073, miss_sat 0, miss_rat 0.000824
smaller tournament 38 outcome, insn 3462998, accesses 8193, hits 0,    config 2 -way
smaller tournament 39, insn 3592784, accesses_since_last 131073, miss_sat 0, miss_rat 0.000797
smaller tournament 39 outcome, insn 3592887, accesses 105, hits 2,    config 2 -way
smaller tournament 40, insn 3722908, accesses_since_last 131073, miss_sat 0, miss_rat 0.000770
smaller tournament 40 outcome, insn 3723011, accesses 102, hits 2,    config 2 -way
smaller tournament 41, insn 3852919, accesses_since_last 131073, miss_sat 0, miss_rat 0.000746
smaller tournament 41 outcome, insn 3852928, accesses 8, hits 2,    config 2 -way
larger tournament 42, insn 3967096, accesses_since_last 115146,      miss_sat 2, miss_rat 0.000726
larger tournament 42 outcome, insn 3967148, accesses 67, hits 2, config 3 -way
smaller tournament 43, insn 4095058, accesses_since_last 131073, miss_sat 0, miss_rat 0.000704
smaller tournament 43 outcome, insn 4103187, accesses 8193, hits 0,    config 2 -way
larger tournament 44, insn 4160198, accesses_since_last 58067,      miss_sat 2, miss_rat 0.000708
larger tournament 44 outcome, insn 4160326, accesses 156, hits 2, config 3 -way
larger tournament 45, insn 4213825, accesses_since_last 56604,      miss_sat 2, miss_rat 0.000718
larger tournament 45 outcome, insn 4221729, accesses 8193, hits 0, config 3 -way
smaller tournament 46, insn 4348455, accesses_since_last 131073, miss_sat 0, miss_rat 0.000723
smaller tournament 46 outcome, insn 4355507, accesses 7172, hits 2,    config 3 -way
larger tournament 47, insn 4467076, accesses_since_last 113009,      miss_sat 2, miss_rat 0.000707
larger tournament 47 outcome, insn 4474961, accesses 8193, hits 1, config 3 -way
smaller tournament 48, insn 4604847, accesses_since_last 131073, miss_sat 0, miss_rat 0.000687
smaller tournament 48 outcome, insn 4612883, accesses 8193, hits 0,    config 2 -way
smaller tournament 49, insn 4742583, accesses_since_last 131073, miss_sat 0, miss_rat 0.000672
smaller tournament 49 outcome, insn 4742822, accesses 243, hits 2,    config 2 -way
smaller tournament 50, insn 4872515, accesses_since_last 131073, miss_sat 0, miss_rat 0.000659
smaller tournament 50 outcome, insn 4872714, accesses 200, hits 2,    config 2 -way
larger tournament 51, insn 4983533, accesses_since_last 112170,      miss_sat 2, miss_rat 0.000658
larger tournament 51 outcome, insn 4983656, accesses 150, hits 2, config 3 -way
larger tournament 52, insn 5087073, accesses_since_last 109276,      miss_sat 2, miss_rat 0.000674
larger tournament 52 outcome, insn 5092349, accesses 5359, hits 2, config 4 -way
smaller tournament 53, insn 5219313, accesses_since_last 131073, miss_sat 0, miss_rat 0.000692
smaller tournament 53 outcome, insn 5227507, accesses 8193, hits 0,    config 3 -way
larger tournament 54, insn 5260360, accesses_since_last 32923,      miss_sat 2, miss_rat 0.000688
larger tournament 54 outcome, insn 5260368, accesses 10, hits 2, config 4 -way
larger tournament 55, insn 5260559, accesses_since_last 281,      miss_sat 2, miss_rat 0.000690
larger tournament 55 outcome, insn 5268592, accesses 8193, hits 0, config 4 -way
smaller tournament 56, insn 5399318, accesses_since_last 131073, miss_sat 0, miss_rat 0.000674
smaller tournament 56 outcome, insn 5407508, accesses 8193, hits 0,    config 3 -way
larger tournament 57, insn 5465441, accesses_since_last 58829,      miss_sat 2, miss_rat 0.000674
larger tournament 57 outcome, insn 5473258, accesses 8193, hits 0, config 3 -way
larger tournament 58, insn 5473795, accesses_since_last 608,      miss_sat 2, miss_rat 0.000683
larger tournament 58 outcome, insn 5481692, accesses 8193, hits 0, config 3 -way
smaller tournament 59, insn 5609081, accesses_since_last 131073, miss_sat 0, miss_rat 0.000695
smaller tournament 59 outcome, insn 5609218, accesses 144, hits 2,    config 3 -way
larger tournament 60, insn 5634760, accesses_since_last 26000,      miss_sat 2, miss_rat 0.000706
larger tournament 60 outcome, insn 5642743, accesses 8193, hits 0, config 3 -way
larger tournament 61, insn 5645853, accesses_since_last 3144,      miss_sat 2, miss_rat 0.000716
larger tournament 61 outcome, insn 5649098, accesses 3309, hits 2, config 4 -way
larger tournament 62, insn 5650700, accesses_since_last 1744,      miss_sat 2, miss_rat 0.000718
larger tournament 62 outcome, insn 5658744, accesses 8193, hits 0, config 4 -way
larger tournament 63, insn 5660240, accesses_since_last 1545,      miss_sat 2, miss_rat 0.000719
larger tournament 63 outcome, insn 5668398, accesses 8193, hits 0, config 4 -way
larger tournament 64, insn 5674967, accesses_since_last 6765,      miss_sat 2, miss_rat 0.000723
larger tournament 64 outcome, insn 5682934, accesses 8193, hits 0, config 4 -way
larger tournament 65, insn 5692885, accesses_since_last 10232,      miss_sat 2, miss_rat 0.000725
larger tournament 65 outcome, insn 5700590, accesses 8193, hits 0, config 4 -way
smaller tournament 66, insn 5829198, accesses_since_last 131073, miss_sat 0, miss_rat 0.000718
smaller tournament 66 outcome, insn 5837213, accesses 8193, hits 0,    config 3 -way
larger tournament 67, insn 5926175, accesses_since_last 91439,      miss_sat 2, miss_rat 0.000730
larger tournament 67 outcome, insn 5928243, accesses 2206, hits 2, config 4 -way
smaller tournament 68, insn 6054487, accesses_since_last 131073, miss_sat 0, miss_rat 0.000718
smaller tournament 68 outcome, insn 6062341, accesses 8193, hits 0,    config 3 -way
larger tournament 69, insn 6103657, accesses_since_last 43392,      miss_sat 2, miss_rat 0.000719
larger tournament 69 outcome, insn 6105174, accesses 1638, hits 2, config 4 -way
larger tournament 70, insn 6114237, accesses_since_last 9550,      miss_sat 2, miss_rat 0.000721
larger tournament 70 outcome, insn 6121936, accesses 8193, hits 0, config 4 -way
larger tournament 71, insn 6129084, accesses_since_last 7623,      miss_sat 2, miss_rat 0.000720
larger tournament 71 outcome, insn 6131433, accesses 2495, hits 2, config 5 -way
smaller tournament 72, insn 6256603, accesses_since_last 131073, miss_sat 0, miss_rat 0.000708
smaller tournament 72 outcome, insn 6261808, accesses 5555, hits 2,    config 5 -way
larger tournament 73, insn 6304304, accesses_since_last 44382,      miss_sat 2, miss_rat 0.000711
larger tournament 73 outcome, insn 6312023, accesses 8193, hits 0, config 5 -way
smaller tournament 74, insn 6440388, accesses_since_last 131073, miss_sat 0, miss_rat 0.000705
smaller tournament 74 outcome, insn 6448579, accesses 8193, hits 0,    config 4 -way
larger tournament 75, insn 6456931, accesses_since_last 8661,      miss_sat 2, miss_rat 0.000707
larger tournament 75 outcome, insn 6464989, accesses 8193, hits 0, config 4 -way
larger tournament 76, insn 6533095, accesses_since_last 68465,      miss_sat 2, miss_rat 0.000706
larger tournament 76 outcome, insn 6533774, accesses 958, hits 2, config 5 -way
larger tournament 77, insn 6536337, accesses_since_last 3289,      miss_sat 2, miss_rat 0.000713
larger tournament 77 outcome, insn 6539113, accesses 2796, hits 2, config 6 -way
larger tournament 78, insn 6542944, accesses_since_last 3969,      miss_sat 2, miss_rat 0.000715
larger tournament 78 outcome, insn 6550623, accesses 7929, hits 2, config 7 -way
larger tournament 79, insn 6576725, accesses_since_last 28541,      miss_sat 2, miss_rat 0.000731
larger tournament 79 outcome, insn 6584376, accesses 8193, hits 0, config 7 -way
larger tournament 80, insn 6603601, accesses_since_last 20746,      miss_sat 2, miss_rat 0.000732
larger tournament 80 outcome, insn 6611342, accesses 8193, hits 0, config 7 -way
larger tournament 81, insn 6617515, accesses_since_last 6332,      miss_sat 2, miss_rat 0.000742
larger tournament 81 outcome, insn 6624816, accesses 8193, hits 0, config 7 -way
smaller tournament 82, insn 6747511, accesses_since_last 131073, miss_sat 0, miss_rat 0.000729
smaller tournament 82 outcome, insn 6754541, accesses 8193, hits 0,    config 6 -way
smaller tournament 83, insn 6877570, accesses_since_last 131073, miss_sat 0, miss_rat 0.000715
smaller tournament 83 outcome, insn 6885371, accesses 8193, hits 0,    config 5 -way
smaller tournament 84, insn 7008391, accesses_since_last 131073, miss_sat 0, miss_rat 0.000701
smaller tournament 84 outcome, insn 7015854, accesses 8193, hits 0,    config 4 -way
larger tournament 85, insn 7052142, accesses_since_last 39065,      miss_sat 2, miss_rat 0.000703
larger tournament 85 outcome, insn 7060131, accesses 8193, hits 0, config 4 -way
smaller tournament 86, insn 7182677, accesses_since_last 131073, miss_sat 0, miss_rat 0.000694
smaller tournament 86 outcome, insn 7183221, accesses 601, hits 2,    config 4 -way
smaller tournament 87, insn 7305495, accesses_since_last 131073, miss_sat 0, miss_rat 0.000685
smaller tournament 87 outcome, insn 7311036, accesses 6023, hits 2,    config 4 -way
larger tournament 88, insn 7407217, accesses_since_last 103127,      miss_sat 2, miss_rat 0.000679
larger tournament 88 outcome, insn 7415140, accesses 8193, hits 0, config 4 -way
smaller tournament 89, insn 7537113, accesses_since_last 131073, miss_sat 0, miss_rat 0.000677
smaller tournament 89 outcome, insn 7537899, accesses 784, hits 2,    config 4 -way
smaller tournament 90, insn 7660333, accesses_since_last 131073, miss_sat 0, miss_rat 0.000668
smaller tournament 90 outcome, insn 7662684, accesses 2350, hits 2,    config 4 -way
smaller tournament 91, insn 7785790, accesses_since_last 131073, miss_sat 0, miss_rat 0.000660
smaller tournament 91 outcome, insn 7790162, accesses 4802, hits 2,    config 4 -way
smaller tournament 92, insn 7912387, accesses_since_last 131073, miss_sat 0, miss_rat 0.000652
smaller tournament 92 outcome, insn 7916231, accesses 3940, hits 2,    config 4 -way
smaller tournament 93, insn 8038880, accesses_since_last 131073, miss_sat 0, miss_rat 0.000644
smaller tournament 93 outcome, insn 8039316, accesses 436, hits 2,    config 4 -way
smaller tournament 94, insn 8162027, accesses_since_last 131073, miss_sat 0, miss_rat 0.000637
smaller tournament 94 outcome, insn 8163524, accesses 1634, hits 2,    config 4 -way
smaller tournament 95, insn 8286037, accesses_since_last 131073, miss_sat 0, miss_rat 0.000630
smaller tournament 95 outcome, insn 8293979, accesses 8193, hits 0,    config 3 -way
larger tournament 96, insn 8315105, accesses_since_last 22167,      miss_sat 2, miss_rat 0.000632
larger tournament 96 outcome, insn 8319744, accesses 5113, hits 2, config 4 -way
smaller tournament 97, insn 8442752, accesses_since_last 131073, miss_sat 0, miss_rat 0.000625
smaller tournament 97 outcome, insn 8444919, accesses 2167, hits 2,    config 4 -way
smaller tournament 98, insn 8567604, accesses_since_last 131073, miss_sat 0, miss_rat 0.000619
smaller tournament 98 outcome, insn 8569273, accesses 1669, hits 2,    config 4 -way
smaller tournament 99, insn 8691808, accesses_since_last 131073, miss_sat 0, miss_rat 0.000612
smaller tournament 99 outcome, insn 8692938, accesses 1279, hits 2,    config 4 -way
smaller tournament 100, insn 8815817, accesses_since_last 131073, miss_sat 0, miss_rat 0.000606
smaller tournament 100 outcome, insn 8815860, accesses 59, hits 2,    config 4 -way
smaller tournament 101, insn 8938492, accesses_since_last 131073, miss_sat 0, miss_rat 0.000600
smaller tournament 101 outcome, insn 8946232, accesses 8193, hits 0,    config 3 -way
larger tournament 102, insn 8967522, accesses_since_last 22465,      miss_sat 2, miss_rat 0.000602
larger tournament 102 outcome, insn 8972161, accesses 5148, hits 2, config 4 -way
smaller tournament 103, insn 9095145, accesses_since_last 131073, miss_sat 0, miss_rat 0.000596
smaller tournament 103 outcome, insn 9095447, accesses 314, hits 2,    config 4 -way
smaller tournament 104, insn 9218365, accesses_since_last 131073, miss_sat 0, miss_rat 0.000590
smaller tournament 104 outcome, insn 9222622, accesses 4309, hits 2,    config 4 -way
smaller tournament 105, insn 9345126, accesses_since_last 131073, miss_sat 0, miss_rat 0.000584
smaller tournament 105 outcome, insn 9350288, accesses 5213, hits 2,    config 4 -way
smaller tournament 106, insn 9472695, accesses_since_last 131073, miss_sat 0, miss_rat 0.000578
smaller tournament 106 outcome, insn 9473432, accesses 736, hits 2,    config 4 -way
smaller tournament 107, insn 9596327, accesses_since_last 131073, miss_sat 0, miss_rat 0.000573
smaller tournament 107 outcome, insn 9596697, accesses 465, hits 2,    config 4 -way
smaller tournament 108, insn 9719356, accesses_since_last 131073, miss_sat 0, miss_rat 0.000568
smaller tournament 108 outcome, insn 9724023, accesses 4857, hits 2,    config 4 -way
smaller tournament 109, insn 9846864, accesses_since_last 131073, miss_sat 0, miss_rat 0.000562
smaller tournament 109 outcome, insn 9849723, accesses 2945, hits 2,    config 4 -way
smaller tournament 110, insn 9972832, accesses_since_last 131073, miss_sat 0, miss_rat 0.000557
smaller tournament 110 outcome, insn 9973135, accesses 337, hits 2,    config 4 -way
smaller tournament 111, insn 10095949, accesses_since_last 131073, miss_sat 0, miss_rat 0.000552
smaller tournament 111 outcome, insn 10102419, accesses 6935, hits 2,    config 4 -way
smaller tournament 112, insn 10225481, accesses_since_last 131073, miss_sat 0, miss_rat 0.000547
smaller tournament 112 outcome, insn 10227406, accesses 1933, hits 2,    config 4 -way
smaller tournament 113, insn 10349936, accesses_since_last 131073, miss_sat 0, miss_rat 0.000542
smaller tournament 113 outcome, insn 10350762, accesses 827, hits 2,    config 4 -way
smaller tournament 114, insn 10473157, accesses_since_last 131073, miss_sat 0, miss_rat 0.000539
smaller tournament 114 outcome, insn 10477381, accesses 4615, hits 2,    config 4 -way
larger tournament 115, insn 10556217, accesses_since_last 84000,      miss_sat 2, miss_rat 0.000540
larger tournament 115 outcome, insn 10561162, accesses 5180, hits 2, config 5 -way
larger tournament 116, insn 10645435, accesses_since_last 90043,      miss_sat 2, miss_rat 0.000536
larger tournament 116 outcome, insn 10653196, accesses 8193, hits 0, config 5 -way
smaller tournament 117, insn 10776310, accesses_since_last 131073, miss_sat 0, miss_rat 0.000530
smaller tournament 117 outcome, insn 10783977, accesses 8193, hits 0,    config 4 -way
smaller tournament 118, insn 10906679, accesses_since_last 131073, miss_sat 0, miss_rat 0.000526
smaller tournament 118 outcome, insn 10912592, accesses 5989, hits 2,    config 4 -way
smaller tournament 119, insn 11034809, accesses_since_last 131073, miss_sat 0, miss_rat 0.000521
smaller tournament 119 outcome, insn 11035068, accesses 258, hits 2,    config 4 -way
smaller tournament 120, insn 11157857, accesses_since_last 131073, miss_sat 0, miss_rat 0.000517
smaller tournament 120 outcome, insn 11163686, accesses 6170, hits 2,    config 4 -way
smaller tournament 121, insn 11286201, accesses_since_last 131073, miss_sat 0, miss_rat 0.000513
smaller tournament 121 outcome, insn 11292087, accesses 6036, hits 2,    config 4 -way
smaller tournament 122, insn 11414110, accesses_since_last 131073, miss_sat 0, miss_rat 0.000509
smaller tournament 122 outcome, insn 11414937, accesses 841, hits 2,    config 4 -way
smaller tournament 123, insn 11538325, accesses_since_last 131073, miss_sat 0, miss_rat 0.000505
smaller tournament 123 outcome, insn 11539453, accesses 1224, hits 2,    config 4 -way
smaller tournament 124, insn 11662217, accesses_since_last 131073, miss_sat 0, miss_rat 0.000502
smaller tournament 124 outcome, insn 11662488, accesses 272, hits 2,    config 4 -way
smaller tournament 125, insn 11785174, accesses_since_last 131073, miss_sat 0, miss_rat 0.000498
smaller tournament 125 outcome, insn 11786475, accesses 1430, hits 2,    config 4 -way
smaller tournament 126, insn 11908674, accesses_since_last 131073, miss_sat 0, miss_rat 0.000494
smaller tournament 126 outcome, insn 11911941, accesses 3289, hits 2,    config 4 -way
smaller tournament 127, insn 12034602, accesses_since_last 131073, miss_sat 0, miss_rat 0.000491
smaller tournament 127 outcome, insn 12042322, accesses 8193, hits 0,    config 3 -way
larger tournament 128, insn 12061780, accesses_since_last 20357,      miss_sat 2, miss_rat 0.000493
larger tournament 128 outcome, insn 12066419, accesses 5113, hits 2, config 4 -way
smaller tournament 129, insn 12189181, accesses_since_last 131073, miss_sat 0, miss_rat 0.000489
smaller tournament 129 outcome, insn 12190295, accesses 1171, hits 2,    config 4 -way
smaller tournament 130, insn 12312796, accesses_since_last 131073, miss_sat 0, miss_rat 0.000486
smaller tournament 130 outcome, insn 12317984, accesses 5247, hits 2,    config 4 -way
smaller tournament 131, insn 12440325, accesses_since_last 131073, miss_sat 0, miss_rat 0.000483
smaller tournament 131 outcome, insn 12445695, accesses 5431, hits 2,    config 4 -way
smaller tournament 132, insn 12568065, accesses_since_last 131073, miss_sat 0, miss_rat 0.000480
smaller tournament 132 outcome, insn 12573639, accesses 6004, hits 2,    config 4 -way
smaller tournament 133, insn 12696448, accesses_since_last 131073, miss_sat 0, miss_rat 0.000476
smaller tournament 133 outcome, insn 12697089, accesses 668, hits 2,    config 4 -way
smaller tournament 134, insn 12820265, accesses_since_last 131073, miss_sat 0, miss_rat 0.000473
smaller tournament 134 outcome, insn 12820612, accesses 366, hits 2,    config 4 -way
smaller tournament 135, insn 12943835, accesses_since_last 131073, miss_sat 0, miss_rat 0.000470
smaller tournament 135 outcome, insn 12945060, accesses 1453, hits 2,    config 4 -way
larger tournament 136, insn 13016760, accesses_since_last 76659,      miss_sat 2, miss_rat 0.000468
larger tournament 136 outcome, insn 13019637, accesses 3104, hits 2, config 5 -way
smaller tournament 137, insn 13142376, accesses_since_last 131073, miss_sat 0, miss_rat 0.000464
smaller tournament 137 outcome, insn 13149172, accesses 7288, hits 2,    config 5 -way
smaller tournament 138, insn 13271825, accesses_since_last 131073, miss_sat 0, miss_rat 0.000459
smaller tournament 138 outcome, insn 13279561, accesses 8193, hits 0,    config 4 -way
smaller tournament 139, insn 13401883, accesses_since_last 131073, miss_sat 0, miss_rat 0.000456
smaller tournament 139 outcome, insn 13407959, accesses 6151, hits 2,    config 4 -way
smaller tournament 140, insn 13530243, accesses_since_last 131073, miss_sat 0, miss_rat 0.000453
smaller tournament 140 outcome, insn 13538021, accesses 8193, hits 0,    config 3 -way
larger tournament 141, insn 13559579, accesses_since_last 22623,      miss_sat 2, miss_rat 0.000455
larger tournament 141 outcome, insn 13564218, accesses 5113, hits 2, config 4 -way
smaller tournament 142, insn 13686954, accesses_since_last 131073, miss_sat 0, miss_rat 0.000452
smaller tournament 142 outcome, insn 13694348, accesses 7750, hits 2,    config 4 -way
smaller tournament 143, insn 13817156, accesses_since_last 131073, miss_sat 0, miss_rat 0.000450
smaller tournament 143 outcome, insn 13823441, accesses 6436, hits 2,    config 4 -way
smaller tournament 144, insn 13946254, accesses_since_last 131073, miss_sat 0, miss_rat 0.000446
smaller tournament 144 outcome, insn 13948333, accesses 2181, hits 2,    config 4 -way
smaller tournament 145, insn 14071260, accesses_since_last 131073, miss_sat 0, miss_rat 0.000444
smaller tournament 145 outcome, insn 14071469, accesses 302, hits 2,    config 4 -way
smaller tournament 146, insn 14194398, accesses_since_last 131073, miss_sat 0, miss_rat 0.000441
smaller tournament 146 outcome, insn 14194726, accesses 336, hits 2,    config 4 -way
smaller tournament 147, insn 14317800, accesses_since_last 131073, miss_sat 0, miss_rat 0.000439
smaller tournament 147 outcome, insn 14318441, accesses 677, hits 2,    config 4 -way
smaller tournament 148, insn 14441502, accesses_since_last 131073, miss_sat 0, miss_rat 0.000436
smaller tournament 148 outcome, insn 14449231, accesses 8193, hits 0,    config 3 -way
larger tournament 149, insn 14470858, accesses_since_last 22641,      miss_sat 2, miss_rat 0.000437
larger tournament 149 outcome, insn 14475497, accesses 5148, hits 2, config 4 -way
smaller tournament 150, insn 14598510, accesses_since_last 131073, miss_sat 0, miss_rat 0.000435
smaller tournament 150 outcome, insn 14603572, accesses 5485, hits 2,    config 4 -way
smaller tournament 151, insn 14726178, accesses_since_last 131073, miss_sat 0, miss_rat 0.000432
smaller tournament 151 outcome, insn 14730781, accesses 4664, hits 2,    config 4 -way
smaller tournament 152, insn 14853039, accesses_since_last 131073, miss_sat 0, miss_rat 0.000430
smaller tournament 152 outcome, insn 14858331, accesses 5604, hits 2,    config 4 -way
smaller tournament 153, insn 14981211, accesses_since_last 131073, miss_sat 0, miss_rat 0.000428
smaller tournament 153 outcome, insn 14983777, accesses 2657, hits 2,    config 4 -way
smaller tournament 154, insn 15106063, accesses_since_last 131073, miss_sat 0, miss_rat 0.000425
smaller tournament 154 outcome, insn 15106101, accesses 46, hits 2,    config 4 -way
smaller tournament 155, insn 15229383, accesses_since_last 131073, miss_sat 0, miss_rat 0.000423
smaller tournament 155 outcome, insn 15229532, accesses 161, hits 2,    config 4 -way
smaller tournament 156, insn 15352500, accesses_since_last 131073, miss_sat 0, miss_rat 0.000421
smaller tournament 156 outcome, insn 15354824, accesses 2495, hits 2,    config 4 -way
smaller tournament 157, insn 15477646, accesses_since_last 131073, miss_sat 0, miss_rat 0.000419
smaller tournament 157 outcome, insn 15485382, accesses 8193, hits 0,    config 3 -way
larger tournament 158, insn 15511155, accesses_since_last 27201,      miss_sat 2, miss_rat 0.000421
larger tournament 158 outcome, insn 15515794, accesses 5148, hits 2, config 4 -way
smaller tournament 159, insn 15638345, accesses_since_last 131073, miss_sat 0, miss_rat 0.000418
smaller tournament 159 outcome, insn 15641453, accesses 3328, hits 2,    config 4 -way
smaller tournament 160, insn 15763982, accesses_since_last 131073, miss_sat 0, miss_rat 0.000416
smaller tournament 160 outcome, insn 15764051, accesses 84, hits 2,    config 4 -way
smaller tournament 161, insn 15887761, accesses_since_last 131073, miss_sat 0, miss_rat 0.000414
smaller tournament 161 outcome, insn 15892037, accesses 4741, hits 2,    config 4 -way
smaller tournament 162, insn 16015131, accesses_since_last 131073, miss_sat 0, miss_rat 0.000412
smaller tournament 162 outcome, insn 16017370, accesses 2250, hits 2,    config 4 -way
smaller tournament 163, insn 16139782, accesses_since_last 131073, miss_sat 0, miss_rat 0.000410
smaller tournament 163 outcome, insn 16145501, accesses 6159, hits 2,    config 4 -way
smaller tournament 164, insn 16267837, accesses_since_last 131073, miss_sat 0, miss_rat 0.000408
smaller tournament 164 outcome, insn 16268070, accesses 241, hits 2,    config 4 -way
smaller tournament 165, insn 16391179, accesses_since_last 131073, miss_sat 0, miss_rat 0.000406
smaller tournament 165 outcome, insn 16393504, accesses 2439, hits 2,    config 4 -way
smaller tournament 166, insn 16516577, accesses_since_last 131073, miss_sat 0, miss_rat 0.000404
smaller tournament 166 outcome, insn 16521000, accesses 4726, hits 2,    config 4 -way
smaller tournament 167, insn 16643664, accesses_since_last 131073, miss_sat 0, miss_rat 0.000402
smaller tournament 167 outcome, insn 16649172, accesses 5661, hits 2,    config 4 -way
smaller tournament 168, insn 16772488, accesses_since_last 131073, miss_sat 0, miss_rat 0.000400
smaller tournament 168 outcome, insn 16774909, accesses 2543, hits 2,    config 4 -way
smaller tournament 169, insn 16897547, accesses_since_last 131073, miss_sat 0, miss_rat 0.000398
smaller tournament 169 outcome, insn 16898027, accesses 488, hits 2,    config 4 -way
smaller tournament 170, insn 17020981, accesses_since_last 131073, miss_sat 0, miss_rat 0.000396
smaller tournament 170 outcome, insn 17023419, accesses 2678, hits 2,    config 4 -way
smaller tournament 171, insn 17145755, accesses_since_last 131073, miss_sat 0, miss_rat 0.000395
smaller tournament 171 outcome, insn 17153873, accesses 8193, hits 1,    config 3 -way
larger tournament 172, insn 17163646, accesses_since_last 10457,      miss_sat 2, miss_rat 0.000396
larger tournament 172 outcome, insn 17168285, accesses 5113, hits 2, config 4 -way
smaller tournament 173, insn 17291301, accesses_since_last 131073, miss_sat 0, miss_rat 0.000394
smaller tournament 173 outcome, insn 17294193, accesses 3110, hits 2,    config 4 -way
smaller tournament 174, insn 17416869, accesses_since_last 131073, miss_sat 0, miss_rat 0.000392
smaller tournament 174 outcome, insn 17418815, accesses 2033, hits 2,    config 4 -way
smaller tournament 175, insn 17541948, accesses_since_last 131073, miss_sat 0, miss_rat 0.000390
smaller tournament 175 outcome, insn 17545076, accesses 3269, hits 2,    config 4 -way
smaller tournament 176, insn 17668174, accesses_since_last 131073, miss_sat 0, miss_rat 0.000389
smaller tournament 176 outcome, insn 17670986, accesses 3083, hits 2,    config 4 -way
smaller tournament 177, insn 17793386, accesses_since_last 131073, miss_sat 0, miss_rat 0.000387
smaller tournament 177 outcome, insn 17793911, accesses 523, hits 2,    config 4 -way
smaller tournament 178, insn 17916827, accesses_since_last 131073, miss_sat 0, miss_rat 0.000386
smaller tournament 178 outcome, insn 17917014, accesses 247, hits 2,    config 4 -way
smaller tournament 179, insn 18040173, accesses_since_last 131073, miss_sat 0, miss_rat 0.000384
smaller tournament 179 outcome, insn 18042475, accesses 2451, hits 2,    config 4 -way
smaller tournament 180, insn 18165232, accesses_since_last 131073, miss_sat 0, miss_rat 0.000382
smaller tournament 180 outcome, insn 18168079, accesses 3016, hits 2,    config 4 -way
smaller tournament 181, insn 18290795, accesses_since_last 131073, miss_sat 0, miss_rat 0.000381
smaller tournament 181 outcome, insn 18291534, accesses 863, hits 2,    config 4 -way
smaller tournament 182, insn 18414966, accesses_since_last 131073, miss_sat 0, miss_rat 0.000379
smaller tournament 182 outcome, insn 18416969, accesses 2124, hits 2,    config 4 -way
smaller tournament 183, insn 18539893, accesses_since_last 131073, miss_sat 0, miss_rat 0.000378
smaller tournament 183 outcome, insn 18542159, accesses 2529, hits 2,    config 4 -way
smaller tournament 184, insn 18664714, accesses_since_last 131073, miss_sat 0, miss_rat 0.000376
smaller tournament 184 outcome, insn 18670395, accesses 5732, hits 2,    config 4 -way
smaller tournament 185, insn 18792856, accesses_since_last 131073, miss_sat 0, miss_rat 0.000375
smaller tournament 185 outcome, insn 18798662, accesses 6161, hits 2,    config 4 -way
smaller tournament 186, insn 18921573, accesses_since_last 131073, miss_sat 0, miss_rat 0.000373
smaller tournament 186 outcome, insn 18921954, accesses 472, hits 2,    config 4 -way
smaller tournament 187, insn 19045249, accesses_since_last 131073, miss_sat 0, miss_rat 0.000372
smaller tournament 187 outcome, insn 19045353, accesses 113, hits 2,    config 4 -way
smaller tournament 188, insn 19168196, accesses_since_last 131073, miss_sat 0, miss_rat 0.000370
smaller tournament 188 outcome, insn 19168269, accesses 79, hits 2,    config 4 -way
smaller tournament 189, insn 19290769, accesses_since_last 131073, miss_sat 0, miss_rat 0.000369
smaller tournament 189 outcome, insn 19293204, accesses 2435, hits 2,    config 4 -way
smaller tournament 190, insn 19415862, accesses_since_last 131073, miss_sat 0, miss_rat 0.000368
smaller tournament 190 outcome, insn 19423605, accesses 8193, hits 0,    config 3 -way
larger tournament 191, insn 19449921, accesses_since_last 27770,      miss_sat 2, miss_rat 0.000369
larger tournament 191 outcome, insn 19454560, accesses 5148, hits 2, config 4 -way
smaller tournament 192, insn 19577756, accesses_since_last 131073, miss_sat 0, miss_rat 0.000368
smaller tournament 192 outcome, insn 19578736, accesses 990, hits 2,    config 4 -way
smaller tournament 193, insn 19701548, accesses_since_last 131073, miss_sat 0, miss_rat 0.000366
smaller tournament 193 outcome, insn 19709223, accesses 8193, hits 0,    config 3 -way
larger tournament 194, insn 19737127, accesses_since_last 29212,      miss_sat 2, miss_rat 0.000368
larger tournament 194 outcome, insn 19741766, accesses 5113, hits 2, config 4 -way
smaller tournament 195, insn 19864670, accesses_since_last 131073, miss_sat 0, miss_rat 0.000366
smaller tournament 195 outcome, insn 19870675, accesses 6489, hits 2,    config 4 -way
smaller tournament 196, insn 19993100, accesses_since_last 131073, miss_sat 0, miss_rat 0.000365
smaller tournament 196 outcome, insn 19998440, accesses 5640, hits 2,    config 4 -way
smaller tournament 197, insn 20120908, accesses_since_last 131073, miss_sat 0, miss_rat 0.000364
smaller tournament 197 outcome, insn 20126675, accesses 5918, hits 2,    config 4 -way
smaller tournament 198, insn 20249797, accesses_since_last 131073, miss_sat 0, miss_rat 0.000362
smaller tournament 198 outcome, insn 20250972, accesses 1281, hits 2,    config 4 -way
smaller tournament 199, insn 20373483, accesses_since_last 131073, miss_sat 0, miss_rat 0.000361
smaller tournament 199 outcome, insn 20378815, accesses 5767, hits 2,    config 4 -way
smaller tournament 200, insn 20501993, accesses_since_last 131073, miss_sat 0, miss_rat 0.000360
smaller tournament 200 outcome, insn 20506381, accesses 4438, hits 2,    config 4 -way
smaller tournament 201, insn 20628952, accesses_since_last 131073, miss_sat 0, miss_rat 0.000358
smaller tournament 201 outcome, insn 20636768, accesses 8193, hits 0,    config 3 -way
larger tournament 202, insn 20666804, accesses_since_last 31793,      miss_sat 2, miss_rat 0.000359
larger tournament 202 outcome, insn 20671443, accesses 5148, hits 2, config 4 -way
smaller tournament 203, insn 20794118, accesses_since_last 131073, miss_sat 0, miss_rat 0.000358
smaller tournament 203 outcome, insn 20797628, accesses 3801, hits 2,    config 4 -way
smaller tournament 204, insn 20920289, accesses_since_last 131073, miss_sat 0, miss_rat 0.000357
smaller tournament 204 outcome, insn 20920570, accesses 307, hits 2,    config 4 -way
smaller tournament 205, insn 21043605, accesses_since_last 131073, miss_sat 0, miss_rat 0.000356
smaller tournament 205 outcome, insn 21043845, accesses 262, hits 2,    config 4 -way
smaller tournament 206, insn 21166991, accesses_since_last 131073, miss_sat 0, miss_rat 0.000354
smaller tournament 206 outcome, insn 21167211, accesses 317, hits 2,    config 4 -way
smaller tournament 207, insn 21289329, accesses_since_last 131073, miss_sat 0, miss_rat 0.000353
smaller tournament 207 outcome, insn 21290955, accesses 1642, hits 2,    config 4 -way
smaller tournament 208, insn 21414583, accesses_since_last 131073, miss_sat 0, miss_rat 0.000352
smaller tournament 208 outcome, insn 21417370, accesses 2973, hits 2,    config 4 -way
smaller tournament 209, insn 21540290, accesses_since_last 131073, miss_sat 0, miss_rat 0.000351
smaller tournament 209 outcome, insn 21548044, accesses 8193, hits 0,    config 3 -way
larger tournament 210, insn 21573677, accesses_since_last 26791,      miss_sat 2, miss_rat 0.000352
larger tournament 210 outcome, insn 21578316, accesses 5150, hits 2, config 4 -way
smaller tournament 211, insn 21700844, accesses_since_last 131073, miss_sat 0, miss_rat 0.000351
smaller tournament 211 outcome, insn 21707189, accesses 6418, hits 2,    config 4 -way
smaller tournament 212, insn 21829658, accesses_since_last 131073, miss_sat 0, miss_rat 0.000350
smaller tournament 212 outcome, insn 21837473, accesses 8193, hits 0,    config 3 -way
larger tournament 213, insn 21866974, accesses_since_last 30985,      miss_sat 2, miss_rat 0.000351
larger tournament 213 outcome, insn 21871613, accesses 5113, hits 2, config 4 -way
smaller tournament 214, insn 21994519, accesses_since_last 131073, miss_sat 0, miss_rat 0.000350
smaller tournament 214 outcome, insn 21995690, accesses 1326, hits 2,    config 4 -way
smaller tournament 215, insn 22118312, accesses_since_last 131073, miss_sat 0, miss_rat 0.000349
smaller tournament 215 outcome, insn 22121992, accesses 3768, hits 2,    config 4 -way
smaller tournament 216, insn 22245696, accesses_since_last 131073, miss_sat 0, miss_rat 0.000347
smaller tournament 216 outcome, insn 22251317, accesses 6099, hits 2,    config 4 -way
smaller tournament 217, insn 22373928, accesses_since_last 131073, miss_sat 0, miss_rat 0.000346
smaller tournament 217 outcome, insn 22378290, accesses 4441, hits 2,    config 4 -way
smaller tournament 218, insn 22500837, accesses_since_last 131073, miss_sat 0, miss_rat 0.000345
smaller tournament 218 outcome, insn 22508593, accesses 8193, hits 0,    config 3 -way
larger tournament 219, insn 22534034, accesses_since_last 26960,      miss_sat 2, miss_rat 0.000346
larger tournament 219 outcome, insn 22538673, accesses 5148, hits 2, config 4 -way
smaller tournament 220, insn 22661548, accesses_since_last 131073, miss_sat 0, miss_rat 0.000345
smaller tournament 220 outcome, insn 22662742, accesses 1196, hits 2,    config 4 -way
smaller tournament 221, insn 22785701, accesses_since_last 131073, miss_sat 0, miss_rat 0.000344
smaller tournament 221 outcome, insn 22785976, accesses 275, hits 2,    config 4 -way
smaller tournament 222, insn 22909202, accesses_since_last 131073, miss_sat 0, miss_rat 0.000343
smaller tournament 222 outcome, insn 22909225, accesses 31, hits 2,    config 4 -way
smaller tournament 223, insn 23031766, accesses_since_last 131073, miss_sat 0, miss_rat 0.000342
smaller tournament 223 outcome, insn 23038518, accesses 7156, hits 2,    config 4 -way
smaller tournament 224, insn 23161253, accesses_since_last 131073, miss_sat 0, miss_rat 0.000341
smaller tournament 224 outcome, insn 23161821, accesses 661, hits 2,    config 4 -way
smaller tournament 225, insn 23285157, accesses_since_last 131073, miss_sat 0, miss_rat 0.000340
smaller tournament 225 outcome, insn 23285506, accesses 379, hits 2,    config 4 -way
smaller tournament 226, insn 23408758, accesses_since_last 131073, miss_sat 0, miss_rat 0.000339
smaller tournament 226 outcome, insn 23411483, accesses 3023, hits 2,    config 4 -way
smaller tournament 227, insn 23533848, accesses_since_last 131073, miss_sat 0, miss_rat 0.000338
smaller tournament 227 outcome, insn 23534257, accesses 417, hits 2,    config 4 -way
smaller tournament 228, insn 23657585, accesses_since_last 131073, miss_sat 0, miss_rat 0.000337
smaller tournament 228 outcome, insn 23660383, accesses 2940, hits 2,    config 4 -way
smaller tournament 229, insn 23783403, accesses_since_last 131073, miss_sat 0, miss_rat 0.000336
smaller tournament 229 outcome, insn 23785979, accesses 2839, hits 2,    config 4 -way
smaller tournament 230, insn 23908145, accesses_since_last 131073, miss_sat 0, miss_rat 0.000339
smaller tournament 230 outcome, insn 23910264, accesses 2199, hits 2,    config 4 -way
larger tournament 231, insn 23927613, accesses_since_last 17944,      miss_sat 2, miss_rat 0.000343
larger tournament 231 outcome, insn 23935600, accesses 8193, hits 0, config 4 -way
larger tournament 232, insn 24038778, accesses_since_last 104108,      miss_sat 2, miss_rat 0.000342
larger tournament 232 outcome, insn 24046457, accesses 8193, hits 1, config 4 -way
smaller tournament 233, insn 24175844, accesses_since_last 131073, miss_sat 0, miss_rat 0.000344
smaller tournament 233 outcome, insn 24183901, accesses 8193, hits 0,    config 3 -way
smaller tournament 234, insn 24312775, accesses_since_last 131073, miss_sat 0, miss_rat 0.000344
smaller tournament 234 outcome, insn 24315749, accesses 3040, hits 2,    config 3 -way
smaller tournament 235, insn 24445162, accesses_since_last 131073, miss_sat 0, miss_rat 0.000343
smaller tournament 235 outcome, insn 24453287, accesses 8193, hits 0,    config 2 -way
larger tournament 236, insn 24526657, accesses_since_last 74215,      miss_sat 2, miss_rat 0.000345
larger tournament 236 outcome, insn 24526991, accesses 336, hits 2, config 3 -way
smaller tournament 237, insn 24656957, accesses_since_last 131073, miss_sat 0, miss_rat 0.000343
smaller tournament 237 outcome, insn 24665089, accesses 8193, hits 0,    config 2 -way
larger tournament 238, insn 24710985, accesses_since_last 46805,      miss_sat 2, miss_rat 0.000344
larger tournament 238 outcome, insn 24711060, accesses 105, hits 2, config 3 -way
larger tournament 239, insn 24754145, accesses_since_last 44678,      miss_sat 2, miss_rat 0.000347
larger tournament 239 outcome, insn 24761859, accesses 7801, hits 2, config 4 -way
smaller tournament 240, insn 24890926, accesses_since_last 131073, miss_sat 0, miss_rat 0.000346
smaller tournament 240 outcome, insn 24899068, accesses 8193, hits 0,    config 3 -way
smaller tournament 241, insn 25026525, accesses_since_last 131073, miss_sat 0, miss_rat 0.000349
smaller tournament 241 outcome, insn 25034666, accesses 8193, hits 0,    config 2 -way
larger tournament 242, insn 25071297, accesses_since_last 37496,      miss_sat 2, miss_rat 0.000351
larger tournament 242 outcome, insn 25071920, accesses 639, hits 2, config 3 -way
smaller tournament 243, insn 25197508, accesses_since_last 131073, miss_sat 0, miss_rat 0.000353
smaller tournament 243 outcome, insn 25205632, accesses 8193, hits 0,    config 2 -way
larger tournament 244, insn 25231188, accesses_since_last 26375,      miss_sat 2, miss_rat 0.000355
larger tournament 244 outcome, insn 25231522, accesses 336, hits 2, config 3 -way
larger tournament 245, insn 25350556, accesses_since_last 123318,      miss_sat 2, miss_rat 0.000357
larger tournament 245 outcome, insn 25350584, accesses 30, hits 2, config 4 -way
smaller tournament 246, insn 25475061, accesses_since_last 131073, miss_sat 0, miss_rat 0.000359
smaller tournament 246 outcome, insn 25482857, accesses 8193, hits 0,    config 3 -way
larger tournament 247, insn 25603597, accesses_since_last 127376,      miss_sat 2, miss_rat 0.000359
larger tournament 247 outcome, insn 25603616, accesses 26, hits 2, config 4 -way
smaller tournament 248, insn 25727691, accesses_since_last 131073, miss_sat 0, miss_rat 0.000358
smaller tournament 248 outcome, insn 25735542, accesses 8193, hits 0,    config 3 -way
smaller tournament 249, insn 25859490, accesses_since_last 131073, miss_sat 0, miss_rat 0.000357
smaller tournament 249 outcome, insn 25861161, accesses 1725, hits 2,    config 3 -way
smaller tournament 250, insn 25985404, accesses_since_last 131073, miss_sat 0, miss_rat 0.000356
smaller tournament 250 outcome, insn 25986191, accesses 829, hits 2,    config 3 -way
smaller tournament 251, insn 26111745, accesses_since_last 131073, miss_sat 0, miss_rat 0.000355
smaller tournament 251 outcome, insn 26114134, accesses 2522, hits 2,    config 3 -way
larger tournament 252, insn 26162669, accesses_since_last 50265,      miss_sat 2, miss_rat 0.000355
larger tournament 252 outcome, insn 26163150, accesses 583, hits 2, config 4 -way
larger tournament 253, insn 26173584, accesses_since_last 11650,      miss_sat 2, miss_rat 0.000357
larger tournament 253 outcome, insn 26173735, accesses 202, hits 2, config 5 -way
larger tournament 254, insn 26183892, accesses_since_last 10975,      miss_sat 2, miss_rat 0.000358
larger tournament 254 outcome, insn 26185103, accesses 1312, hits 2, config 6 -way
larger tournament 255, insn 26199420, accesses_since_last 15402,      miss_sat 2, miss_rat 0.000360
larger tournament 255 outcome, insn 26206857, accesses 8193, hits 0, config 6 -way
larger tournament 256, insn 26325727, accesses_since_last 125897,      miss_sat 2, miss_rat 0.000359
larger tournament 256 outcome, insn 26333515, accesses 8193, hits 0, config 6 -way
larger tournament 257, insn 26336126, accesses_since_last 2852,      miss_sat 2, miss_rat 0.000360
larger tournament 257 outcome, insn 26344112, accesses 8193, hits 0, config 6 -way
smaller tournament 258, insn 26468682, accesses_since_last 131073, miss_sat 0, miss_rat 0.000360
smaller tournament 258 outcome, insn 26470828, accesses 2363, hits 2,    config 6 -way
larger tournament 259, insn 26553305, accesses_since_last 85247,      miss_sat 2, miss_rat 0.000362
larger tournament 259 outcome, insn 26561138, accesses 8193, hits 0, config 6 -way
larger tournament 260, insn 26565902, accesses_since_last 5052,      miss_sat 2, miss_rat 0.000362
larger tournament 260 outcome, insn 26573804, accesses 8193, hits 0, config 6 -way
larger tournament 261, insn 26665769, accesses_since_last 95304,      miss_sat 2, miss_rat 0.000362
larger tournament 261 outcome, insn 26673469, accesses 8193, hits 0, config 6 -way
larger tournament 262, insn 26713342, accesses_since_last 41020,      miss_sat 2, miss_rat 0.000364
larger tournament 262 outcome, insn 26721383, accesses 8193, hits 0, config 6 -way
smaller tournament 263, insn 26847253, accesses_since_last 131073, miss_sat 0, miss_rat 0.000364
smaller tournament 263 outcome, insn 26855253, accesses 8193, hits 0,    config 5 -way
larger tournament 264, insn 26962107, accesses_since_last 110339,      miss_sat 2, miss_rat 0.000366
larger tournament 264 outcome, insn 26970014, accesses 8193, hits 0, config 5 -way
smaller tournament 265, insn 27096667, accesses_since_last 131073, miss_sat 0, miss_rat 0.000365
smaller tournament 265 outcome, insn 27104813, accesses 8193, hits 0,    config 4 -way
larger tournament 266, insn 27192766, accesses_since_last 91994,      miss_sat 2, miss_rat 0.000369
larger tournament 266 outcome, insn 27194177, accesses 1513, hits 2, config 5 -way
smaller tournament 267, insn 27318882, accesses_since_last 131073, miss_sat 0, miss_rat 0.000368
smaller tournament 267 outcome, insn 27327026, accesses 8193, hits 1,    config 4 -way
smaller tournament 268, insn 27453174, accesses_since_last 131073, miss_sat 0, miss_rat 0.000369
smaller tournament 268 outcome, insn 27453358, accesses 198, hits 2,    config 4 -way
smaller tournament 269, insn 27580067, accesses_since_last 131073, miss_sat 0, miss_rat 0.000370
smaller tournament 269 outcome, insn 27581920, accesses 1970, hits 2,    config 4 -way
larger tournament 270, insn 27582448, accesses_since_last 551,      miss_sat 2, miss_rat 0.000370
larger tournament 270 outcome, insn 27582502, accesses 75, hits 2, config 5 -way
smaller tournament 271, insn 27708820, accesses_since_last 131073, miss_sat 0, miss_rat 0.000369
smaller tournament 271 outcome, insn 27716911, accesses 8193, hits 0,    config 4 -way
smaller tournament 272, insn 27843502, accesses_since_last 131073, miss_sat 0, miss_rat 0.000372
smaller tournament 272 outcome, insn 27845300, accesses 1799, hits 2,    config 4 -way
smaller tournament 273, insn 27971773, accesses_since_last 131073, miss_sat 0, miss_rat 0.000374
smaller tournament 273 outcome, insn 27976962, accesses 5303, hits 2,    config 4 -way
larger tournament 274, insn 28011246, accesses_since_last 35055,      miss_sat 2, miss_rat 0.000374
larger tournament 274 outcome, insn 28011261, accesses 17, hits 2, config 5 -way
smaller tournament 275, insn 28138339, accesses_since_last 131073, miss_sat 0, miss_rat 0.000372
smaller tournament 275 outcome, insn 28141008, accesses 2833, hits 2,    config 5 -way
smaller tournament 276, insn 28267719, accesses_since_last 131073, miss_sat 0, miss_rat 0.000371
smaller tournament 276 outcome, insn 28274572, accesses 7064, hits 2,    config 5 -way
smaller tournament 277, insn 28400501, accesses_since_last 131073, miss_sat 0, miss_rat 0.000369
smaller tournament 277 outcome, insn 28403418, accesses 2947, hits 2,    config 5 -way
smaller tournament 278, insn 28529850, accesses_since_last 131073, miss_sat 0, miss_rat 0.000369
smaller tournament 278 outcome, insn 28537947, accesses 8193, hits 0,    config 4 -way
smaller tournament 279, insn 28664567, accesses_since_last 131073, miss_sat 0, miss_rat 0.000371
smaller tournament 279 outcome, insn 28664894, accesses 383, hits 2,    config 4 -way
larger tournament 280, insn 28768024, accesses_since_last 106373,      miss_sat 2, miss_rat 0.000371
larger tournament 280 outcome, insn 28768039, accesses 17, hits 2, config 5 -way
smaller tournament 281, insn 28895004, accesses_since_last 131073, miss_sat 0, miss_rat 0.000370
smaller tournament 281 outcome, insn 28898145, accesses 3176, hits 2,    config 5 -way
smaller tournament 282, insn 29024867, accesses_since_last 131073, miss_sat 0, miss_rat 0.000368
smaller tournament 282 outcome, insn 29032971, accesses 8193, hits 0,    config 4 -way
larger tournament 283, insn 29098071, accesses_since_last 67651,      miss_sat 2, miss_rat 0.000368
larger tournament 283 outcome, insn 29098133, accesses 83, hits 2, config 5 -way
smaller tournament 284, insn 29224399, accesses_since_last 131073, miss_sat 0, miss_rat 0.000367
smaller tournament 284 outcome, insn 29232507, accesses 8193, hits 0,    config 4 -way
smaller tournament 285, insn 29359052, accesses_since_last 131073, miss_sat 0, miss_rat 0.000369
smaller tournament 285 outcome, insn 29360954, accesses 1957, hits 2,    config 4 -way
smaller tournament 286, insn 29487081, accesses_since_last 131073, miss_sat 0, miss_rat 0.000371
smaller tournament 286 outcome, insn 29492129, accesses 5144, hits 2,    config 4 -way
larger tournament 287, insn 29546869, accesses_since_last 56478,      miss_sat 2, miss_rat 0.000371
larger tournament 287 outcome, insn 29546884, accesses 17, hits 2, config 5 -way
smaller tournament 288, insn 29674039, accesses_since_last 131073, miss_sat 0, miss_rat 0.000369
smaller tournament 288 outcome, insn 29677890, accesses 3893, hits 2,    config 5 -way
smaller tournament 289, insn 29804376, accesses_since_last 131073, miss_sat 0, miss_rat 0.000368
smaller tournament 289 outcome, insn 29812471, accesses 8193, hits 0,    config 4 -way
smaller tournament 290, insn 29939447, accesses_since_last 131073, miss_sat 0, miss_rat 0.000368
smaller tournament 290 outcome, insn 29939472, accesses 31, hits 2,    config 4 -way
smaller tournament 291, insn 30065482, accesses_since_last 131073, miss_sat 0, miss_rat 0.000369
smaller tournament 291 outcome, insn 30066169, accesses 698, hits 2,    config 4 -way
smaller tournament 292, insn 30192308, accesses_since_last 131073, miss_sat 0, miss_rat 0.000371
smaller tournament 292 outcome, insn 30193332, accesses 1108, hits 2,    config 4 -way
smaller tournament 293, insn 30320731, accesses_since_last 131073, miss_sat 0, miss_rat 0.000371
smaller tournament 293 outcome, insn 30321202, accesses 534, hits 2,    config 4 -way
larger tournament 294, insn 30322613, accesses_since_last 1706,      miss_sat 2, miss_rat 0.000372
larger tournament 294 outcome, insn 30322628, accesses 17, hits 2, config 5 -way
smaller tournament 295, insn 30449366, accesses_since_last 131073, miss_sat 0, miss_rat 0.000370
smaller tournament 295 outcome, insn 30454552, accesses 5288, hits 2,    config 5 -way
smaller tournament 296, insn 30580890, accesses_since_last 131073, miss_sat 0, miss_rat 0.000369
smaller tournament 296 outcome, insn 30589014, accesses 8193, hits 0,    config 4 -way
larger tournament 297, insn 30652637, accesses_since_last 66235,      miss_sat 2, miss_rat 0.000369
larger tournament 297 outcome, insn 30652691, accesses 74, hits 2, config 5 -way
smaller tournament 298, insn 30778700, accesses_since_last 131073, miss_sat 0, miss_rat 0.000368
smaller tournament 298 outcome, insn 30786787, accesses 8193, hits 0,    config 4 -way
smaller tournament 299, insn 30913693, accesses_since_last 131073, miss_sat 0, miss_rat 0.000370
smaller tournament 299 outcome, insn 30916347, accesses 2855, hits 2,    config 4 -way
smaller tournament 300, insn 31042594, accesses_since_last 131073, miss_sat 0, miss_rat 0.000371
smaller tournament 300 outcome, insn 31043815, accesses 1260, hits 2,    config 4 -way
larger tournament 301, insn 31094406, accesses_since_last 51935,      miss_sat 2, miss_rat 0.000371
larger tournament 301 outcome, insn 31094421, accesses 17, hits 2, config 5 -way
smaller tournament 302, insn 31221692, accesses_since_last 131073, miss_sat 0, miss_rat 0.000370
smaller tournament 302 outcome, insn 31229630, accesses 8193, hits 0,    config 4 -way
smaller tournament 303, insn 31355960, accesses_since_last 131073, miss_sat 0, miss_rat 0.000370
smaller tournament 303 outcome, insn 31360974, accesses 5064, hits 2,    config 4 -way
larger tournament 304, insn 31429501, accesses_since_last 71145,      miss_sat 2, miss_rat 0.000370
larger tournament 304 outcome, insn 31429563, accesses 83, hits 2, config 5 -way
smaller tournament 305, insn 31555714, accesses_since_last 131073, miss_sat 0, miss_rat 0.000369
smaller tournament 305 outcome, insn 31563810, accesses 8193, hits 0,    config 4 -way
smaller tournament 306, insn 31690529, accesses_since_last 131073, miss_sat 0, miss_rat 0.000370
smaller tournament 306 outcome, insn 31695542, accesses 5304, hits 2,    config 4 -way
smaller tournament 307, insn 31821933, accesses_since_last 131073, miss_sat 0, miss_rat 0.000372
smaller tournament 307 outcome, insn 31822202, accesses 303, hits 2,    config 4 -way
larger tournament 308, insn 31878633, accesses_since_last 58305,      miss_sat 2, miss_rat 0.000373
larger tournament 308 outcome, insn 31878759, accesses 141, hits 2, config 5 -way
smaller tournament 309, insn 32005976, accesses_since_last 131073, miss_sat 0, miss_rat 0.000371
smaller tournament 309 outcome, insn 32010901, accesses 5014, hits 2,    config 5 -way
smaller tournament 310, insn 32137410, accesses_since_last 131073, miss_sat 0, miss_rat 0.000370
smaller tournament 310 outcome, insn 32145503, accesses 8193, hits 0,    config 4 -way
smaller tournament 311, insn 32272521, accesses_since_last 131073, miss_sat 0, miss_rat 0.000370
smaller tournament 311 outcome, insn 32272551, accesses 31, hits 2,    config 4 -way
smaller tournament 312, insn 32398671, accesses_since_last 131073, miss_sat 0, miss_rat 0.000372
smaller tournament 312 outcome, insn 32406123, accesses 7558, hits 2,    config 4 -way
larger tournament 313, insn 32466368, accesses_since_last 62225,      miss_sat 2, miss_rat 0.000373
larger tournament 313 outcome, insn 32466515, accesses 163, hits 2, config 5 -way
smaller tournament 314, insn 32592614, accesses_since_last 131073, miss_sat 0, miss_rat 0.000372
smaller tournament 314 outcome, insn 32600614, accesses 8193, hits 0,    config 4 -way
larger tournament 315, insn 32661302, accesses_since_last 62643,      miss_sat 2, miss_rat 0.000372
larger tournament 315 outcome, insn 32661317, accesses 17, hits 2, config 5 -way
smaller tournament 316, insn 32788228, accesses_since_last 131073, miss_sat 0, miss_rat 0.000370
smaller tournament 316 outcome, insn 32789670, accesses 1478, hits 2,    config 5 -way
smaller tournament 317, insn 32915918, accesses_since_last 131073, miss_sat 0, miss_rat 0.000369
smaller tournament 317 outcome, insn 32924052, accesses 8193, hits 0,    config 4 -way
larger tournament 318, insn 32985748, accesses_since_last 64284,      miss_sat 2, miss_rat 0.000369
larger tournament 318 outcome, insn 32985810, accesses 83, hits 2, config 5 -way
smaller tournament 319, insn 33111944, accesses_since_last 131073, miss_sat 0, miss_rat 0.000369
smaller tournament 319 outcome, insn 33120044, accesses 8193, hits 0,    config 4 -way
smaller tournament 320, insn 33246917, accesses_since_last 131073, miss_sat 0, miss_rat 0.000370
smaller tournament 320 outcome, insn 33251680, accesses 5045, hits 2,    config 4 -way
smaller tournament 321, insn 33377938, accesses_since_last 131073, miss_sat 0, miss_rat 0.000372
smaller tournament 321 outcome, insn 33378113, accesses 195, hits 2,    config 4 -way
larger tournament 322, insn 33432376, accesses_since_last 55931,      miss_sat 2, miss_rat 0.000372
larger tournament 322 outcome, insn 33432391, accesses 17, hits 2, config 5 -way
smaller tournament 323, insn 33559746, accesses_since_last 131073, miss_sat 0, miss_rat 0.000370
smaller tournament 323 outcome, insn 33565654, accesses 6009, hits 2,    config 5 -way
smaller tournament 324, insn 33691997, accesses_since_last 131073, miss_sat 0, miss_rat 0.000369
smaller tournament 324 outcome, insn 33700128, accesses 8193, hits 0,    config 4 -way
larger tournament 325, insn 33761919, accesses_since_last 64435,      miss_sat 2, miss_rat 0.000369
larger tournament 325 outcome, insn 33761981, accesses 83, hits 2, config 5 -way
smaller tournament 326, insn 33887974, accesses_since_last 131073, miss_sat 0, miss_rat 0.000369
smaller tournament 326 outcome, insn 33896011, accesses 8193, hits 0,    config 4 -way
smaller tournament 327, insn 34023475, accesses_since_last 131073, miss_sat 0, miss_rat 0.000370
smaller tournament 327 outcome, insn 34030738, accesses 7763, hits 2,    config 4 -way
smaller tournament 328, insn 34157152, accesses_since_last 131073, miss_sat 0, miss_rat 0.000371
smaller tournament 328 outcome, insn 34159731, accesses 2619, hits 2,    config 4 -way
smaller tournament 329, insn 34286908, accesses_since_last 131073, miss_sat 0, miss_rat 0.000371
smaller tournament 329 outcome, insn 34287251, accesses 353, hits 2,    config 4 -way
smaller tournament 330, insn 34414072, accesses_since_last 131073, miss_sat 0, miss_rat 0.000371
smaller tournament 330 outcome, insn 34418770, accesses 5125, hits 2,    config 4 -way
smaller tournament 331, insn 34545907, accesses_since_last 131073, miss_sat 0, miss_rat 0.000371
smaller tournament 331 outcome, insn 34547165, accesses 1293, hits 2,    config 4 -way
larger tournament 332, insn 34556721, accesses_since_last 10259,      miss_sat 2, miss_rat 0.000371
larger tournament 332 outcome, insn 34556775, accesses 74, hits 2, config 5 -way
larger tournament 333, insn 34631424, accesses_since_last 77696,      miss_sat 2, miss_rat 0.000371
larger tournament 333 outcome, insn 34638353, accesses 7646, hits 2, config 6 -way
smaller tournament 334, insn 34764815, accesses_since_last 131073, miss_sat 0, miss_rat 0.000370
smaller tournament 334 outcome, insn 34772857, accesses 8193, hits 0,    config 5 -way
smaller tournament 335, insn 34899360, accesses_since_last 131073, miss_sat 0, miss_rat 0.000369
smaller tournament 335 outcome, insn 34904851, accesses 5520, hits 2,    config 5 -way
smaller tournament 336, insn 35031290, accesses_since_last 131073, miss_sat 0, miss_rat 0.000369
smaller tournament 336 outcome, insn 35033925, accesses 2848, hits 2,    config 5 -way
larger tournament 337, insn 35157856, accesses_since_last 127572,      miss_sat 2, miss_rat 0.000368
larger tournament 337 outcome, insn 35165562, accesses 8193, hits 0, config 5 -way
smaller tournament 338, insn 35292223, accesses_since_last 131073, miss_sat 0, miss_rat 0.000366
smaller tournament 338 outcome, insn 35296015, accesses 3868, hits 2,    config 5 -way
smaller tournament 339, insn 35422270, accesses_since_last 131073, miss_sat 0, miss_rat 0.000366
smaller tournament 339 outcome, insn 35422960, accesses 724, hits 2,    config 5 -way
smaller tournament 340, insn 35549469, accesses_since_last 131073, miss_sat 0, miss_rat 0.000365
smaller tournament 340 outcome, insn 35550857, accesses 1444, hits 2,    config 5 -way
smaller tournament 341, insn 35677520, accesses_since_last 131073, miss_sat 0, miss_rat 0.000364
smaller tournament 341 outcome, insn 35685550, accesses 8193, hits 0,    config 4 -way
smaller tournament 342, insn 35812780, accesses_since_last 131073, miss_sat 0, miss_rat 0.000365
smaller tournament 342 outcome, insn 35819998, accesses 7705, hits 2,    config 4 -way
smaller tournament 343, insn 35946823, accesses_since_last 131073, miss_sat 0, miss_rat 0.000365
smaller tournament 343 outcome, insn 35947034, accesses 246, hits 2,    config 4 -way
smaller tournament 344, insn 36073902, accesses_since_last 131073, miss_sat 0, miss_rat 0.000365
smaller tournament 344 outcome, insn 36075308, accesses 1407, hits 2,    config 4 -way
larger tournament 345, insn 36136628, accesses_since_last 64058,      miss_sat 2, miss_rat 0.000365
larger tournament 345 outcome, insn 36136690, accesses 83, hits 2, config 5 -way
smaller tournament 346, insn 36262507, accesses_since_last 131073, miss_sat 0, miss_rat 0.000364
smaller tournament 346 outcome, insn 36268136, accesses 5696, hits 2,    config 5 -way
smaller tournament 347, insn 36395121, accesses_since_last 131073, miss_sat 0, miss_rat 0.000364
smaller tournament 347 outcome, insn 36398401, accesses 3311, hits 2,    config 5 -way
smaller tournament 348, insn 36524972, accesses_since_last 131073, miss_sat 0, miss_rat 0.000363
smaller tournament 348 outcome, insn 36532975, accesses 8193, hits 0,    config 4 -way
larger tournament 349, insn 36565772, accesses_since_last 33767,      miss_sat 2, miss_rat 0.000363
larger tournament 349 outcome, insn 36565787, accesses 17, hits 2, config 5 -way
smaller tournament 350, insn 36693021, accesses_since_last 131073, miss_sat 0, miss_rat 0.000362
smaller tournament 350 outcome, insn 36694173, accesses 1153, hits 2,    config 5 -way
smaller tournament 351, insn 36820686, accesses_since_last 131073, miss_sat 0, miss_rat 0.000361
smaller tournament 351 outcome, insn 36828817, accesses 8193, hits 0,    config 4 -way
larger tournament 352, insn 36886840, accesses_since_last 60394,      miss_sat 2, miss_rat 0.000361
larger tournament 352 outcome, insn 36886902, accesses 83, hits 2, config 5 -way
smaller tournament 353, insn 37013114, accesses_since_last 131073, miss_sat 0, miss_rat 0.000360
smaller tournament 353 outcome, insn 37021258, accesses 8193, hits 0,    config 4 -way
smaller tournament 354, insn 37147806, accesses_since_last 131073, miss_sat 0, miss_rat 0.000362
smaller tournament 354 outcome, insn 37150700, accesses 2897, hits 2,    config 4 -way
smaller tournament 355, insn 37277312, accesses_since_last 131073, miss_sat 0, miss_rat 0.000363
smaller tournament 355 outcome, insn 37277488, accesses 247, hits 2,    config 4 -way
larger tournament 356, insn 37323039, accesses_since_last 46912,      miss_sat 2, miss_rat 0.000363
larger tournament 356 outcome, insn 37323054, accesses 17, hits 2, config 5 -way
smaller tournament 357, insn 37449899, accesses_since_last 131073, miss_sat 0, miss_rat 0.000362
smaller tournament 357 outcome, insn 37455294, accesses 5458, hits 2,    config 5 -way
smaller tournament 358, insn 37581780, accesses_since_last 131073, miss_sat 0, miss_rat 0.000361
smaller tournament 358 outcome, insn 37589877, accesses 8193, hits 0,    config 4 -way
smaller tournament 359, insn 37716541, accesses_since_last 131073, miss_sat 0, miss_rat 0.000361
smaller tournament 359 outcome, insn 37718633, accesses 2304, hits 2,    config 4 -way
smaller tournament 360, insn 37845185, accesses_since_last 131073, miss_sat 0, miss_rat 0.000362
smaller tournament 360 outcome, insn 37846347, accesses 1196, hits 2,    config 4 -way
smaller tournament 361, insn 37972568, accesses_since_last 131073, miss_sat 0, miss_rat 0.000364
smaller tournament 361 outcome, insn 37974832, accesses 2288, hits 2,    config 4 -way
smaller tournament 362, insn 38101646, accesses_since_last 131073, miss_sat 0, miss_rat 0.000364
smaller tournament 362 outcome, insn 38103368, accesses 1885, hits 2,    config 4 -way
smaller tournament 363, insn 38230117, accesses_since_last 131073, miss_sat 0, miss_rat 0.000365
smaller tournament 363 outcome, insn 38232114, accesses 2028, hits 2,    config 4 -way
larger tournament 364, insn 38251751, accesses_since_last 20615,      miss_sat 2, miss_rat 0.000365
larger tournament 364 outcome, insn 38251756, accesses 7, hits 2, config 5 -way
smaller tournament 365, insn 38378862, accesses_since_last 131073, miss_sat 0, miss_rat 0.000364
smaller tournament 365 outcome, insn 38386918, accesses 8193, hits 0,    config 4 -way
larger tournament 366, insn 38442494, accesses_since_last 57960,      miss_sat 2, miss_rat 0.000364
larger tournament 366 outcome, insn 38442556, accesses 83, hits 2, config 5 -way
smaller tournament 367, insn 38568745, accesses_since_last 131073, miss_sat 0, miss_rat 0.000364
smaller tournament 367 outcome, insn 38576834, accesses 8193, hits 0,    config 4 -way
smaller tournament 368, insn 38703274, accesses_since_last 131073, miss_sat 0, miss_rat 0.000365
smaller tournament 368 outcome, insn 38705300, accesses 2236, hits 2,    config 4 -way
smaller tournament 369, insn 38832305, accesses_since_last 131073, miss_sat 0, miss_rat 0.000366
smaller tournament 369 outcome, insn 38836859, accesses 4572, hits 2,    config 4 -way
larger tournament 370, insn 38892178, accesses_since_last 57129,      miss_sat 2, miss_rat 0.000366
larger tournament 370 outcome, insn 38892193, accesses 17, hits 2, config 5 -way
smaller tournament 371, insn 39019167, accesses_since_last 131073, miss_sat 0, miss_rat 0.000366
smaller tournament 371 outcome, insn 39022633, accesses 3714, hits 2,    config 5 -way
smaller tournament 372, insn 39149231, accesses_since_last 131073, miss_sat 0, miss_rat 0.000364
smaller tournament 372 outcome, insn 39157249, accesses 8193, hits 0,    config 4 -way
larger tournament 373, insn 39217694, accesses_since_last 62977,      miss_sat 2, miss_rat 0.000365
larger tournament 373 outcome, insn 39217756, accesses 83, hits 2, config 5 -way
smaller tournament 374, insn 39343987, accesses_since_last 131073, miss_sat 0, miss_rat 0.000364
smaller tournament 374 outcome, insn 39352094, accesses 8193, hits 0,    config 4 -way
smaller tournament 375, insn 39478889, accesses_since_last 131073, miss_sat 0, miss_rat 0.000365
smaller tournament 375 outcome, insn 39479616, accesses 731, hits 2,    config 4 -way
smaller tournament 376, insn 39606376, accesses_since_last 131073, miss_sat 0, miss_rat 0.000366
smaller tournament 376 outcome, insn 39606834, accesses 528, hits 2,    config 4 -way
larger tournament 377, insn 39661855, accesses_since_last 56929,      miss_sat 2, miss_rat 0.000366
larger tournament 377 outcome, insn 39661870, accesses 17, hits 2, config 5 -way
smaller tournament 378, insn 39788919, accesses_since_last 131073, miss_sat 0, miss_rat 0.000365
smaller tournament 378 outcome, insn 39790029, accesses 1144, hits 2,    config 5 -way
smaller tournament 379, insn 39916618, accesses_since_last 131073, miss_sat 0, miss_rat 0.000364
smaller tournament 379 outcome, insn 39924749, accesses 8193, hits 0,    config 4 -way
larger tournament 380, insn 39981249, accesses_since_last 58880,      miss_sat 2, miss_rat 0.000364
larger tournament 380 outcome, insn 39981303, accesses 74, hits 2, config 5 -way
smaller tournament 381, insn 40107603, accesses_since_last 131073, miss_sat 0, miss_rat 0.000364
smaller tournament 381 outcome, insn 40115706, accesses 8193, hits 0,    config 4 -way
smaller tournament 382, insn 40242633, accesses_since_last 131073, miss_sat 0, miss_rat 0.000365
smaller tournament 382 outcome, insn 40242646, accesses 12, hits 2,    config 4 -way
smaller tournament 383, insn 40369346, accesses_since_last 131073, miss_sat 0, miss_rat 0.000366
smaller tournament 383 outcome, insn 40369404, accesses 67, hits 2,    config 4 -way
larger tournament 384, insn 40421215, accesses_since_last 53308,      miss_sat 2, miss_rat 0.000366
larger tournament 384 outcome, insn 40421230, accesses 17, hits 2, config 5 -way
smaller tournament 385, insn 40548234, accesses_since_last 131073, miss_sat 0, miss_rat 0.000365
smaller tournament 385 outcome, insn 40553783, accesses 5571, hits 2,    config 5 -way
smaller tournament 386, insn 40680195, accesses_since_last 131073, miss_sat 0, miss_rat 0.000364
smaller tournament 386 outcome, insn 40688317, accesses 8193, hits 0,    config 4 -way
larger tournament 387, insn 40750285, accesses_since_last 64503,      miss_sat 2, miss_rat 0.000364
larger tournament 387 outcome, insn 40750347, accesses 83, hits 2, config 5 -way
smaller tournament 388, insn 40876767, accesses_since_last 131073, miss_sat 0, miss_rat 0.000363
smaller tournament 388 outcome, insn 40884914, accesses 8193, hits 0,    config 4 -way
smaller tournament 389, insn 41011753, accesses_since_last 131073, miss_sat 0, miss_rat 0.000364
smaller tournament 389 outcome, insn 41011909, accesses 216, hits 2,    config 4 -way
smaller tournament 390, insn 41138229, accesses_since_last 131073, miss_sat 0, miss_rat 0.000366
smaller tournament 390 outcome, insn 41141958, accesses 3764, hits 2,    config 4 -way
smaller tournament 391, insn 41268551, accesses_since_last 131073, miss_sat 0, miss_rat 0.000367
smaller tournament 391 outcome, insn 41271340, accesses 2789, hits 2,    config 4 -way
smaller tournament 392, insn 41398235, accesses_since_last 131073, miss_sat 0, miss_rat 0.000367
smaller tournament 392 outcome, insn 41398981, accesses 865, hits 2,    config 4 -way
smaller tournament 393, insn 41525982, accesses_since_last 131073, miss_sat 0, miss_rat 0.000367
smaller tournament 393 outcome, insn 41527570, accesses 1636, hits 2,    config 4 -way
larger tournament 394, insn 41533442, accesses_since_last 6233,      miss_sat 2, miss_rat 0.000367
larger tournament 394 outcome, insn 41533504, accesses 83, hits 2, config 5 -way
smaller tournament 395, insn 41659732, accesses_since_last 131073, miss_sat 0, miss_rat 0.000367
smaller tournament 395 outcome, insn 41667836, accesses 8193, hits 0,    config 4 -way
smaller tournament 396, insn 41794833, accesses_since_last 131073, miss_sat 0, miss_rat 0.000367
[...]
larger tournament 415, insn 43860058, accesses_since_last 71976,      miss_sat 2, miss_rat 0.000368
larger tournament 415 outcome, insn 43860120, accesses 83, hits 2, config 5 -way
smaller tournament 416, insn 43986391, accesses_since_last 131073, miss_sat 0, miss_rat 0.000368
smaller tournament 416 outcome, insn 43994490, accesses 8193, hits 0,    config 4 -way
smaller tournament 417, insn 44121253, accesses_since_last 131073, miss_sat 0, miss_rat 0.000369
smaller tournament 417 outcome, insn 44121809, accesses 556, hits 2,    config 4 -way
smaller tournament 418, insn 44248079, accesses_since_last 131073, miss_sat 0, miss_rat 0.000370
smaller tournament 418 outcome, insn 44248343, accesses 296, hits 2,    config 4 -way
smaller tournament 419, insn 44374766, accesses_since_last 131073, miss_sat 0, miss_rat 0.000371
smaller tournament 419 outcome, insn 44378581, accesses 3868, hits 2,    config 4 -way
smaller tournament 420, insn 44505807, accesses_since_last 131073, miss_sat 0, miss_rat 0.000371
smaller tournament 420 outcome, insn 44512947, accesses 7180, hits 2,    config 4 -way
smaller tournament 421, insn 44639443, accesses_since_last 131073, miss_sat 0, miss_rat 0.000371
smaller tournament 421 outcome, insn 44646382, accesses 6978, hits 2,    config 4 -way
larger tournament 422, insn 44655084, accesses_since_last 9318,      miss_sat 2, miss_rat 0.000371
larger tournament 422 outcome, insn 44655146, accesses 83, hits 2, config 5 -way
smaller tournament 423, insn 44781320, accesses_since_last 131073, miss_sat 0, miss_rat 0.000370
smaller tournament 423 outcome, insn 44789428, accesses 8193, hits 0,    config 4 -way
smaller tournament 424, insn 44915974, accesses_since_last 131073, miss_sat 0, miss_rat 0.000372
smaller tournament 424 outcome, insn 44916147, accesses 198, hits 2,    config 4 -way
smaller tournament 425, insn 45043353, accesses_since_last 131073, miss_sat 0, miss_rat 0.000373
smaller tournament 425 outcome, insn 45044388, accesses 1074, hits 2,    config 4 -way
larger tournament 426, insn 45096900, accesses_since_last 54105,      miss_sat 2, miss_rat 0.000372
larger tournament 426 outcome, insn 45096915, accesses 17, hits 2, config 5 -way
smaller tournament 427, insn 45224315, accesses_since_last 131073, miss_sat 0, miss_rat 0.000371
smaller tournament 427 outcome, insn 45224781, accesses 510, hits 2,    config 5 -way
smaller tournament 428, insn 45351535, accesses_since_last 131073, miss_sat 0, miss_rat 0.000370
smaller tournament 428 outcome, insn 45359668, accesses 8193, hits 0,    config 4 -way
smaller tournament 429, insn 45486223, accesses_since_last 131073, miss_sat 0, miss_rat 0.000371
smaller tournament 429 outcome, insn 45486489, accesses 270, hits 2,    config 4 -way
smaller tournament 430, insn 45612770, accesses_since_last 131073, miss_sat 0, miss_rat 0.000372
smaller tournament 430 outcome, insn 45618095, accesses 5334, hits 2,    config 4 -way
smaller tournament 431, insn 45744657, accesses_since_last 131073, miss_sat 0, miss_rat 0.000373
smaller tournament 431 outcome, insn 45745037, accesses 392, hits 2,    config 4 -way
smaller tournament 432, insn 45872531, accesses_since_last 131073, miss_sat 0, miss_rat 0.000373
smaller tournament 432 outcome, insn 45872865, accesses 361, hits 2,    config 4 -way
larger tournament 433, insn 45875749, accesses_since_last 3295,      miss_sat 2, miss_rat 0.000374
larger tournament 433 outcome, insn 45875764, accesses 17, hits 2, config 5 -way
smaller tournament 434, insn 46002809, accesses_since_last 131073, miss_sat 0, miss_rat 0.000373
smaller tournament 434 outcome, insn 46008134, accesses 5386, hits 2,    config 5 -way
smaller tournament 435, insn 46134700, accesses_since_last 131073, miss_sat 0, miss_rat 0.000372
smaller tournament 435 outcome, insn 46142833, accesses 8193, hits 0,    config 4 -way
larger tournament 436, insn 46203017, accesses_since_last 62836,      miss_sat 2, miss_rat 0.000372
larger tournament 436 outcome, insn 46203079, accesses 83, hits 2, config 5 -way
smaller tournament 437, insn 46329241, accesses_since_last 131073, miss_sat 0, miss_rat 0.000372
smaller tournament 437 outcome, insn 46337349, accesses 8193, hits 0,    config 4 -way
smaller tournament 438, insn 46464354, accesses_since_last 131073, miss_sat 0, miss_rat 0.000372
smaller tournament 438 outcome, insn 46465389, accesses 1217, hits 2,    config 4 -way
smaller tournament 439, insn 46592115, accesses_since_last 131073, miss_sat 0, miss_rat 0.000373
smaller tournament 439 outcome, insn 46592970, accesses 932, hits 2,    config 4 -way
larger tournament 440, insn 46644627, accesses_since_last 53158,      miss_sat 2, miss_rat 0.000373
larger tournament 440 outcome, insn 46644642, accesses 17, hits 2, config 5 -way
smaller tournament 441, insn 46771867, accesses_since_last 131073, miss_sat 0, miss_rat 0.000372
smaller tournament 441 outcome, insn 46774688, accesses 2855, hits 2,    config 5 -way
smaller tournament 442, insn 46900981, accesses_since_last 131073, miss_sat 0, miss_rat 0.000372
smaller tournament 442 outcome, insn 46908877, accesses 8193, hits 0,    config 4 -way
larger tournament 443, insn 46983534, accesses_since_last 77541,      miss_sat 2, miss_rat 0.000372
larger tournament 443 outcome, insn 46983596, accesses 83, hits 2, config 5 -way
smaller tournament 444, insn 47109902, accesses_since_last 131073, miss_sat 0, miss_rat 0.000371
smaller tournament 444 outcome, insn 47118006, accesses 8193, hits 0,    config 4 -way
smaller tournament 445, insn 47244756, accesses_since_last 131073, miss_sat 0, miss_rat 0.000372
smaller tournament 445 outcome, insn 47245894, accesses 1283, hits 2,    config 4 -way
smaller tournament 446, insn 47372775, accesses_since_last 131073, miss_sat 0, miss_rat 0.000373
smaller tournament 446 outcome, insn 47376660, accesses 3894, hits 2,    config 4 -way
smaller tournament 447, insn 47503272, accesses_since_last 131073, miss_sat 0, miss_rat 0.000374
smaller tournament 447 outcome, insn 47505627, accesses 2356, hits 2,    config 4 -way
smaller tournament 448, insn 47632399, accesses_since_last 131073, miss_sat 0, miss_rat 0.000374
smaller tournament 448 outcome, insn 47633046, accesses 680, hits 2,    config 4 -way
smaller tournament 449, insn 47759603, accesses_since_last 131073, miss_sat 0, miss_rat 0.000375
smaller tournament 449 outcome, insn 47760264, accesses 723, hits 2,    config 4 -way
larger tournament 450, insn 47763334, accesses_since_last 3265,      miss_sat 2, miss_rat 0.000375
larger tournament 450 outcome, insn 47763396, accesses 83, hits 2, config 5 -way
smaller tournament 451, insn 47889663, accesses_since_last 131073, miss_sat 0, miss_rat 0.000374
smaller tournament 451 outcome, insn 47897781, accesses 8193, hits 0,    config 4 -way
smaller tournament 452, insn 48024246, accesses_since_last 131073, miss_sat 0, miss_rat 0.000375
smaller tournament 452 outcome, insn 48024473, accesses 254, hits 2,    config 4 -way
smaller tournament 453, insn 48151268, accesses_since_last 131073, miss_sat 0, miss_rat 0.000376
smaller tournament 453 outcome, insn 48152854, accesses 1626, hits 2,    config 4 -way
larger tournament 454, insn 48207178, accesses_since_last 55958,      miss_sat 2, miss_rat 0.000376
larger tournament 454 outcome, insn 48207193, accesses 17, hits 2, config 5 -way
smaller tournament 455, insn 48334495, accesses_since_last 131073, miss_sat 0, miss_rat 0.000375
smaller tournament 455 outcome, insn 48335164, accesses 669, hits 2,    config 5 -way
smaller tournament 456, insn 48461705, accesses_since_last 131073, miss_sat 0, miss_rat 0.000374
smaller tournament 456 outcome, insn 48469739, accesses 8193, hits 0,    config 4 -way
larger tournament 457, insn 48530437, accesses_since_last 63215,      miss_sat 2, miss_rat 0.000374
larger tournament 457 outcome, insn 48530491, accesses 74, hits 2, config 5 -way
smaller tournament 458, insn 48656733, accesses_since_last 131073, miss_sat 0, miss_rat 0.000374
smaller tournament 458 outcome, insn 48664834, accesses 8193, hits 0,    config 4 -way
smaller tournament 459, insn 48791584, accesses_since_last 131073, miss_sat 0, miss_rat 0.000374
smaller tournament 459 outcome, insn 48792817, accesses 1428, hits 2,    config 4 -way
smaller tournament 460, insn 48919752, accesses_since_last 131073, miss_sat 0, miss_rat 0.000375
smaller tournament 460 outcome, insn 48922954, accesses 3204, hits 2,    config 4 -way
larger tournament 461, insn 48982391, accesses_since_last 61374,      miss_sat 2, miss_rat 0.000375
larger tournament 461 outcome, insn 48982406, accesses 17, hits 2, config 5 -way
smaller tournament 462, insn 49109438, accesses_since_last 131073, miss_sat 0, miss_rat 0.000374
smaller tournament 462 outcome, insn 49116030, accesses 6666, hits 2,    config 5 -way
smaller tournament 463, insn 49242564, accesses_since_last 131073, miss_sat 0, miss_rat 0.000374
smaller tournament 463 outcome, insn 49250694, accesses 8193, hits 0,    config 4 -way
smaller tournament 464, insn 49377011, accesses_since_last 131073, miss_sat 0, miss_rat 0.000374
smaller tournament 464 outcome, insn 49377563, accesses 555, hits 2,    config 4 -way
smaller tournament 465, insn 49504121, accesses_since_last 131073, miss_sat 0, miss_rat 0.000375
smaller tournament 465 outcome, insn 49505664, accesses 1547, hits 2,    config 4 -way
smaller tournament 466, insn 49632146, accesses_since_last 131073, miss_sat 0, miss_rat 0.000376
smaller tournament 466 outcome, insn 49632352, accesses 203, hits 2,    config 4 -way
larger tournament 467, insn 49754116, accesses_since_last 125614,      miss_sat 2, miss_rat 0.000376
larger tournament 467 outcome, insn 49754131, accesses 17, hits 2, config 5 -way
smaller tournament 468, insn 49880809, accesses_since_last 131073, miss_sat 0, miss_rat 0.000375
smaller tournament 468 outcome, insn 49888696, accesses 7982, hits 2,    config 5 -way

sim: ** simulation statistics **
sim_num_insn               50000001 # total number of instructions committed
sim_num_refs               22323253 # total number of loads and stores committed
sim_num_loads              13966693 # total number of loads committed
sim_num_stores         8356560.0000 # total number of stores committed
sim_num_branches            7893820 # total number of branches committed
sim_elapsed_time                114 # total simulation time in seconds
sim_inst_rate           438596.5000 # simulation speed (in insts/sec)
sim_total_insn             51482349 # total number of instructions executed
sim_total_refs             22925244 # total number of loads and stores executed
sim_total_loads            14379470 # total number of loads executed
sim_total_stores       8545774.0000 # total number of stores executed
sim_total_branches          8137544 # total number of branches executed
sim_cycle                  24392014 # total simulation time in cycles
sim_IPC                      2.0499 # instructions per cycle
sim_CPI                      0.4878 # cycles per instruction
sim_exec_BW                  2.1106 # total instructions (mis-spec + committed) per cycle
sim_IPB                      6.3341 # instruction per branch
Cache_Config_Ratio     <error: variable is undefined> # Cache_Run_Ratio
IFQ_count                  85652300 # cumulative IFQ occupancy
IFQ_fcount                 19868020 # cumulative IFQ full count
ifq_occupancy                3.5115 # avg IFQ occupancy (insn's)
ifq_rate                     2.1106 # avg IFQ dispatch rate (insn/cycle)
ifq_latency                  1.6637 # avg IFQ occupant latency (cycle's)
ifq_full                     0.8145 # fraction of time (cycle's) IFQ was full
RUU_count                 318531026 # cumulative RUU occupancy
RUU_fcount                  9913823 # cumulative RUU full count
ruu_occupancy               13.0588 # avg RUU occupancy (insn's)
ruu_rate                     2.1106 # avg RUU dispatch rate (insn/cycle)
ruu_latency                  6.1872 # avg RUU occupant latency (cycle's)
ruu_full                     0.4064 # fraction of time (cycle's) RUU was full
LSQ_count                 140745736 # cumulative LSQ occupancy
LSQ_fcount                  7375358 # cumulative LSQ full count
lsq_occupancy                5.7702 # avg LSQ occupancy (insn's)
lsq_rate                     2.1106 # avg LSQ dispatch rate (insn/cycle)
lsq_latency                  2.7339 # avg LSQ occupant latency (cycle's)
lsq_full                     0.3024 # fraction of time (cycle's) LSQ was full
sim_slip                  525077079 # total number of slip cycles
avg_sim_slip                10.5015 # the average slip between issue and retirement
bpred_bimod.lookups         8236534 # total number of bpred lookups
bpred_bimod.updates         7893818 # total number of updates
bpred_bimod.addr_hits       7615838 # total number of address-predicted hits
bpred_bimod.dir_hits        7659624 # total number of direction-predicted hits (includes addr-hits)
bpred_bimod.misses           234194 # total number of misses
bpred_bimod.jr_hits          946195 # total number of address-predicted hits for JR's
bpred_bimod.jr_seen          965713 # total number of JR's seen
bpred_bimod.jr_non_ras_hits.PP        12045 # total number of address-predicted hits for non-RAS JR's
bpred_bimod.jr_non_ras_seen.PP        14457 # total number of non-RAS JR's seen
bpred_bimod.bpred_addr_rate    0.9648 # branch address-prediction rate (i.e., addr-hits/updates)
bpred_bimod.bpred_dir_rate    0.9703 # branch direction-prediction rate (i.e., all-hits/updates)
bpred_bimod.bpred_jr_rate    0.9798 # JR address-prediction rate (i.e., JR addr-hits/JRs seen)
bpred_bimod.bpred_jr_non_ras_rate.PP    0.8332 # non-RAS JR addr-pred rate (ie, non-RAS JR hits/JRs seen)
bpred_bimod.retstack_pushes       993214 # total number of address pushed onto ret-addr stack
bpred_bimod.retstack_pops       989954 # total number of address popped off of ret-addr stack
bpred_bimod.used_ras.PP       951256 # total number of RAS predictions used
bpred_bimod.ras_hits.PP       934150 # total number of RAS hits
bpred_bimod.ras_rate.PP    0.9820 # RAS prediction rate (i.e., RAS hits/used RAS)
il1.reconfigurations            185 # total number of reconfigurations
il1.tournaments                 468 # total number of tournaments
il1. Power-Saving            0.0000 # Power Saving 
il1. Smaller Cache Cnt      25113312 # SCC 
il1. Largerer Cache Cnt      26973998 # LCC 
il1.accesses               52226576 # total number of accesses
il1.hits                   52207024 # total number of hits
il1.misses                    19552 # total number of misses
il1.mnm_misses                    0 # total number MNM of misses
il1.replacements              15557 # total number of replacements
il1.writebacks                    0 # total number of writebacks
il1.invalidations                 0 # total number of invalidations
il1.miss_rate                0.0004 # miss rate (i.e., misses/ref)
il1.repl_rate                0.0003 # replacement rate (i.e., repls/ref)
il1.wb_rate                  0.0000 # writeback rate (i.e., wrbks/ref)
il1.inv_rate                 0.0000 # invalidation rate (i.e., invs/ref)
dl1.accesses               22196066 # total number of accesses
dl1.hits                   22088639 # total number of hits
dl1.misses                   107427 # total number of misses
dl1.mnm_misses                    0 # total number MNM of misses
dl1.replacements              99235 # total number of replacements
dl1.writebacks                91852 # total number of writebacks
dl1.invalidations                 0 # total number of invalidations
dl1.miss_rate                0.0048 # miss rate (i.e., misses/ref)
dl1.repl_rate                0.0045 # replacement rate (i.e., repls/ref)
dl1.wb_rate                  0.0041 # writeback rate (i.e., wrbks/ref)
dl1.inv_rate                 0.0000 # invalidation rate (i.e., invs/ref)
dl2.accesses                 218831 # total number of accesses
dl2.hits                     109680 # total number of hits
dl2.misses                   109151 # total number of misses
dl2.mnm_misses                 1730 # total number MNM of misses
dl2.replacements             105055 # total number of replacements
dl2.writebacks                46825 # total number of writebacks
dl2.invalidations                 0 # total number of invalidations
dl2.miss_rate                0.4988 # miss rate (i.e., misses/ref)
dl2.repl_rate                0.4801 # replacement rate (i.e., repls/ref)
dl2.wb_rate                  0.2140 # writeback rate (i.e., wrbks/ref)
dl2.inv_rate                 0.0000 # invalidation rate (i.e., invs/ref)
dl3.accesses                 155976 # total number of accesses
dl3.hits                     100870 # total number of hits
dl3.misses                    55106 # total number of misses
dl3.mnm_misses                  102 # total number MNM of misses
dl3.replacements              22339 # total number of replacements
dl3.writebacks                18395 # total number of writebacks
dl3.invalidations                 0 # total number of invalidations
dl3.miss_rate                0.3533 # miss rate (i.e., misses/ref)
dl3.repl_rate                0.1432 # replacement rate (i.e., repls/ref)
dl3.wb_rate                  0.1179 # writeback rate (i.e., wrbks/ref)
dl3.inv_rate                 0.0000 # invalidation rate (i.e., invs/ref)
itlb.accesses              52226576 # total number of accesses
itlb.hits                  52203499 # total number of hits
itlb.misses                   23077 # total number of misses
itlb.mnm_misses                   0 # total number MNM of misses
itlb.replacements             23013 # total number of replacements
itlb.writebacks                   0 # total number of writebacks
itlb.invalidations                0 # total number of invalidations
itlb.miss_rate               0.0004 # miss rate (i.e., misses/ref)
itlb.repl_rate               0.0004 # replacement rate (i.e., repls/ref)
itlb.wb_rate                 0.0000 # writeback rate (i.e., wrbks/ref)
itlb.inv_rate                0.0000 # invalidation rate (i.e., invs/ref)
dtlb.accesses              22421187 # total number of accesses
dtlb.hits                  22373890 # total number of hits
dtlb.misses                   47297 # total number of misses
dtlb.mnm_misses                   0 # total number MNM of misses
dtlb.replacements             47169 # total number of replacements
dtlb.writebacks                   0 # total number of writebacks
dtlb.invalidations                0 # total number of invalidations
dtlb.miss_rate               0.0021 # miss rate (i.e., misses/ref)
dtlb.repl_rate               0.0021 # replacement rate (i.e., repls/ref)
dtlb.wb_rate                 0.0000 # writeback rate (i.e., wrbks/ref)
dtlb.inv_rate                0.0000 # invalidation rate (i.e., invs/ref)
sim_invalid_addrs                 0 # total non-speculative bogus addresses seen (debug var)
ld_text_base           0x0120000000 # program text (code) segment base
ld_text_size                 819200 # program text (code) size in bytes
ld_data_base           0x0140000000 # program initialized data segment base
ld_data_size                 118976 # program init'ed `.data' and uninit'ed `.bss' size in bytes
ld_stack_base          0x011ff9b000 # program stack segment base (highest address in stack)
ld_stack_size                 16384 # program initial stack size
ld_prog_entry          0x0120026a50 # program entry point (initial PC)
ld_environ_base        0x011ff97000 # program environment base address address
ld_target_big_endian              0 # target executable endian-ness, non-zero if big endian
mem.page_count                 1031 # total number of pages allocated
mem.page_mem                  8248k # total size of memory pages allocated
mem.ptab_misses               53240 # total first level page table misses
mem.ptab_accesses         566744252 # total page table accesses
mem.ptab_miss_rate           0.0001 # first level page table miss rate

