sim-outorder: SimpleScalar/Alpha Tool Set version 3.0 of August, 2003.
Copyright (c) 1994-2003 by Todd M. Austin, Ph.D. and SimpleScalar, LLC.
All Rights Reserved. This version of SimpleScalar is licensed for academic
non-commercial use.  No portion of this work may be used by any commercial
entity, or for any commercial purpose, without the prior written permission
of SimpleScalar, LLC (info@simplescalar.com).

warning: section `.comment' ignored...
sim: command line: /home/jai/Desktop/simplescalar/simplesim-RMNM-Flex/sim-outorder -cache:il1 il1:1024:32:4:t:1:8192:131072:1 -cache:dl1 dl1:512:32:4:l -cache:dl2 dl2:1024:64:8:l -cache:dl3 dl3:4096:64:16:l -max:inst 50000000 -fastfwd 20000000 -redir:sim cache_RMNM-Flex_7.txt ../../spec2000binaries/vortex00.peak.ev6 vortex.lgred.raw 

sim: simulation started @ Sun Dec  6 05:53:07 2015, options follow:

sim-outorder: This simulator implements a very detailed out-of-order issue
superscalar processor with a two-level memory system and speculative
execution support.  This simulator is a performance simulator, tracking the
latency of all pipeline operations.

# -config                     # load configuration from a file
# -dumpconfig                 # dump configuration to a file
# -h                    false # print help message    
# -v                    false # verbose operation     
# -d                    false # enable debug message  
# -i                    false # start in Dlite debugger
-seed                       1 # random number generator seed (0 for timer seed)
# -q                    false # initialize and terminate immediately
# -chkpt               <null> # restore EIO trace execution from <fname>
# -redir:sim     cache_RMNM-Flex_7.txt # redirect simulator output to file (non-interactive only)
# -redir:prog          <null> # redirect simulated program output to file
-nice                       0 # simulator scheduling priority
-max:inst            50000000 # maximum number of inst's to execute
-fastfwd             20000000 # number of insts skipped before timing starts
# -ptrace              <null> # generate pipetrace, i.e., <fname|stdout|stderr> <range>
-fetch:ifqsize              4 # instruction fetch queue size (in insts)
-fetch:mplat                3 # extra branch mis-prediction latency
-fetch:speed                1 # speed of front-end of machine relative to execution core
-bpred                  bimod # branch predictor type {nottaken|taken|perfect|bimod|2lev|comb}
-bpred:bimod     2048 # bimodal predictor config (<table size>)
-bpred:2lev      1 1024 8 0 # 2-level predictor config (<l1size> <l2size> <hist_size> <xor>)
-bpred:comb      1024 # combining predictor config (<meta_table_size>)
-bpred:ras                  8 # return address stack size (0 for no return stack)
-bpred:btb       512 4 # BTB config (<num_sets> <associativity>)
# -bpred:spec_update       <null> # speculative predictors update in {ID|WB} (default non-spec)
-decode:width               4 # instruction decode B/W (insts/cycle)
-issue:width                4 # instruction issue B/W (insts/cycle)
-issue:inorder          false # run pipeline with in-order issue
-issue:wrongpath         true # issue instructions down wrong execution paths
-commit:width               4 # instruction commit B/W (insts/cycle)
-ruu:size                  16 # register update unit (RUU) size
-lsq:size                   8 # load/store queue (LSQ) size
-cache:dl1       dl1:512:32:4:l # l1 data cache config, i.e., {<config>|none}
-cache:dl1lat               1 # l1 data cache hit latency (in cycles)
-cache:dl2       dl2:1024:64:8:l # l2 data cache config, i.e., {<config>|none}
-cache:dl2lat               6 # l2 data cache hit latency (in cycles)
-cache:dl3       dl3:4096:64:16:l # l3 data cache config, i.e., {<config>|none}
-cache:dl3lat              10 # l3 data cache hit latency (in cycles)
-cache:il1       il1:1024:32:4:t:1:8192:131072:1 # l1 inst cache config, i.e., {<config>|dl1|dl2|none}
-cache:il1lat               1 # l1 instruction cache hit latency (in cycles)
-cache:il2                dl2 # l2 instruction cache config, i.e., {<config>|dl2|none}
-cache:il2lat               6 # l2 instruction cache hit latency (in cycles)
-cache:il3                dl3 # l3 instruction cache config, i.e., {<config>|dl3|none}
-cache:il3lat              10 # l3 instruction cache hit latency (in cycles)
-cache:flush            false # flush caches on system calls
-cache:icompress        false # convert 64-bit inst addresses to 32-bit inst equivalents
-mem:lat         18 2 # memory access latency (<first_chunk> <inter_chunk>)
-mem:width                  8 # memory access bus width (in bytes)
-tlb:itlb        itlb:16:4096:4:l # instruction TLB config, i.e., {<config>|none}
-tlb:dtlb        dtlb:32:4096:4:l # data TLB config, i.e., {<config>|none}
-tlb:lat                   30 # inst/data TLB miss latency (in cycles)
-res:ialu                   4 # total number of integer ALU's available
-res:imult                  1 # total number of integer multiplier/dividers available
-res:memport                2 # total number of memory system ports available (to CPU)
-res:fpalu                  4 # total number of floating point ALU's available
-res:fpmult                 1 # total number of floating point multiplier/dividers available
# -pcstat              <null> # profile stat(s) against text addr's (mult uses ok)
-bugcompat              false # operate in backward-compatible bugs mode (for testing only)

  Pipetrace range arguments are formatted as follows:

    {{@|#}<start>}:{{@|#|+}<end>}

  Both ends of the range are optional, if neither are specified, the entire
  execution is traced.  Ranges that start with a `@' designate an address
  range to be traced, those that start with an `#' designate a cycle count
  range.  All other range values represent an instruction count range.  The
  second argument, if specified with a `+', indicates a value relative
  to the first argument, e.g., 1000:+100 == 1000:1100.  Program symbols may
  be used in all contexts.

    Examples:   -ptrace FOO.trc #0:#1000
                -ptrace BAR.trc @2000:
                -ptrace BLAH.trc :1500
                -ptrace UXXE.trc :
                -ptrace FOOBAR.trc @main:+278

  Branch predictor configuration examples for 2-level predictor:
    Configurations:   N, M, W, X
      N   # entries in first level (# of shift register(s))
      W   width of shift register(s)
      M   # entries in 2nd level (# of counters, or other FSM)
      X   (yes-1/no-0) xor history and address for 2nd level index
    Sample predictors:
      GAg     : 1, W, 2^W, 0
      GAp     : 1, W, M (M > 2^W), 0
      PAg     : N, W, 2^W, 0
      PAp     : N, W, M (M == 2^(N+W)), 0
      gshare  : 1, W, 2^W, 1
  Predictor `comb' combines a bimodal and a 2-level predictor.

  The cache config parameter <config> has the following format:

    <name>:<nsets>:<bsize>:<assoc>:<repl>

    <name>   - name of the cache being defined
    <nsets>  - number of sets in the cache
    <bsize>  - block size of the cache
    <assoc>  - associativity of the cache
    <repl>   - block replacement strategy, 'l'-LRU, 'f'-FIFO, 'r'-random

    Examples:   -cache:dl1 dl1:4096:32:1:l
                -dtlb dtlb:128:4096:32:r

  Cache levels can be unified by pointing a level of the instruction cache
  hierarchy at the data cache hiearchy using the "dl1" and "dl2" cache
  configuration arguments.  Most sensible combinations are supported, e.g.,

    A unified l2 cache (il2 is pointed at dl2):
      -cache:il1 il1:128:64:1:l -cache:il2 dl2
      -cache:dl1 dl1:256:32:1:l -cache:dl2 ul2:1024:64:2:l

    Or, a fully unified cache hierarchy (il1 pointed at dl1):
      -cache:il1 dl1
      -cache:dl1 ul1:256:32:1:l -cache:dl2 ul2:1024:64:2:l



sim: ** fast forwarding 20000000 insts **
sim: ** starting performance simulation **
smaller tournament 1, insn 126682, accesses_since_last 131073, miss_sat 0, miss_rat 0.007339
smaller tournament 1 outcome, insn 131980, accesses 5678, hits 2,    config 4 -way
smaller tournament 2, insn 257795, accesses_since_last 131073, miss_sat 0, miss_rat 0.006433
smaller tournament 2 outcome, insn 260886, accesses 3169, hits 2,    config 4 -way
smaller tournament 3, insn 386885, accesses_since_last 131073, miss_sat 0, miss_rat 0.004589
smaller tournament 3 outcome, insn 394654, accesses 8193, hits 0,    config 3 -way
larger tournament 4, insn 420500, accesses_since_last 27540,      miss_sat 2, miss_rat 0.004326
larger tournament 4 outcome, insn 420655, accesses 165, hits 2, config 4 -way
smaller tournament 5, insn 545396, accesses_since_last 131073, miss_sat 0, miss_rat 0.003972
smaller tournament 5 outcome, insn 545629, accesses 240, hits 2,    config 4 -way
smaller tournament 6, insn 668837, accesses_since_last 131073, miss_sat 0, miss_rat 0.003373
smaller tournament 6 outcome, insn 676631, accesses 8193, hits 0,    config 3 -way
larger tournament 7, insn 687057, accesses_since_last 11003,      miss_sat 2, miss_rat 0.003315
larger tournament 7 outcome, insn 690538, accesses 3715, hits 2, config 4 -way
smaller tournament 8, insn 813611, accesses_since_last 131073, miss_sat 0, miss_rat 0.003303
smaller tournament 8 outcome, insn 813740, accesses 148, hits 2,    config 4 -way
smaller tournament 9, insn 942032, accesses_since_last 131073, miss_sat 0, miss_rat 0.002935
smaller tournament 9 outcome, insn 950158, accesses 8193, hits 0,    config 3 -way
smaller tournament 10, insn 1079837, accesses_since_last 131073, miss_sat 0, miss_rat 0.002591
smaller tournament 10 outcome, insn 1087964, accesses 8193, hits 0,    config 2 -way
smaller tournament 11, insn 1218043, accesses_since_last 131073, miss_sat 0, miss_rat 0.002305
smaller tournament 11 outcome, insn 1218200, accesses 158, hits 2,    config 2 -way
larger tournament 12, insn 1248931, accesses_since_last 31076,      miss_sat 2, miss_rat 0.002258
larger tournament 12 outcome, insn 1248940, accesses 11, hits 2, config 3 -way
smaller tournament 13, insn 1375400, accesses_since_last 131073, miss_sat 0, miss_rat 0.002081
smaller tournament 13 outcome, insn 1376392, accesses 1071, hits 2,    config 3 -way
larger tournament 14, insn 1421976, accesses_since_last 47941,      miss_sat 2, miss_rat 0.002074
larger tournament 14 outcome, insn 1425107, accesses 3236, hits 2, config 4 -way
smaller tournament 15, insn 1554008, accesses_since_last 131073, miss_sat 0, miss_rat 0.001931
smaller tournament 15 outcome, insn 1562137, accesses 8193, hits 0,    config 3 -way
smaller tournament 16, insn 1692244, accesses_since_last 131073, miss_sat 0, miss_rat 0.001778
smaller tournament 16 outcome, insn 1694772, accesses 2606, hits 2,    config 3 -way
smaller tournament 17, insn 1824738, accesses_since_last 131073, miss_sat 0, miss_rat 0.001656
smaller tournament 17 outcome, insn 1832879, accesses 8193, hits 0,    config 2 -way
smaller tournament 18, insn 1962785, accesses_since_last 131073, miss_sat 0, miss_rat 0.001550
smaller tournament 18 outcome, insn 1963187, accesses 402, hits 2,    config 2 -way
smaller tournament 19, insn 2093091, accesses_since_last 131073, miss_sat 0, miss_rat 0.001466
smaller tournament 19 outcome, insn 2093333, accesses 241, hits 2,    config 2 -way
smaller tournament 20, insn 2223364, accesses_since_last 131073, miss_sat 0, miss_rat 0.001382
smaller tournament 20 outcome, insn 2223545, accesses 180, hits 2,    config 2 -way
smaller tournament 21, insn 2353530, accesses_since_last 131073, miss_sat 0, miss_rat 0.001310
smaller tournament 21 outcome, insn 2354254, accesses 722, hits 2,    config 2 -way
smaller tournament 22, insn 2484161, accesses_since_last 131073, miss_sat 0, miss_rat 0.001248
smaller tournament 22 outcome, insn 2484251, accesses 88, hits 2,    config 2 -way
smaller tournament 23, insn 2614138, accesses_since_last 131073, miss_sat 0, miss_rat 0.001194
smaller tournament 23 outcome, insn 2614277, accesses 137, hits 2,    config 2 -way
smaller tournament 24, insn 2744392, accesses_since_last 131073, miss_sat 0, miss_rat 0.001138
smaller tournament 24 outcome, insn 2744425, accesses 33, hits 2,    config 2 -way
smaller tournament 25, insn 2874314, accesses_since_last 131073, miss_sat 0, miss_rat 0.001090
smaller tournament 25 outcome, insn 2874456, accesses 140, hits 2,    config 2 -way
larger tournament 26, insn 2881315, accesses_since_last 7016,      miss_sat 2, miss_rat 0.001091
larger tournament 26 outcome, insn 2881324, accesses 11, hits 2, config 3 -way
smaller tournament 27, insn 3010569, accesses_since_last 131073, miss_sat 0, miss_rat 0.001047
smaller tournament 27 outcome, insn 3010960, accesses 415, hits 2,    config 3 -way
smaller tournament 28, insn 3137951, accesses_since_last 131073, miss_sat 0, miss_rat 0.001005
smaller tournament 28 outcome, insn 3139757, accesses 1815, hits 2,    config 3 -way
smaller tournament 29, insn 3269774, accesses_since_last 131073, miss_sat 0, miss_rat 0.000965
smaller tournament 29 outcome, insn 3277906, accesses 8193, hits 0,    config 2 -way
larger tournament 30, insn 3326244, accesses_since_last 48790,      miss_sat 2, miss_rat 0.000950
larger tournament 30 outcome, insn 3326296, accesses 67, hits 2, config 3 -way
smaller tournament 31, insn 3454873, accesses_since_last 131073, miss_sat 0, miss_rat 0.000916
smaller tournament 31 outcome, insn 3462998, accesses 8193, hits 0,    config 2 -way
smaller tournament 32, insn 3592784, accesses_since_last 131073, miss_sat 0, miss_rat 0.000885
smaller tournament 32 outcome, insn 3592887, accesses 105, hits 2,    config 2 -way
smaller tournament 33, insn 3722908, accesses_since_last 131073, miss_sat 0, miss_rat 0.000855
smaller tournament 33 outcome, insn 3723011, accesses 102, hits 2,    config 2 -way
smaller tournament 34, insn 3852919, accesses_since_last 131073, miss_sat 0, miss_rat 0.000828
smaller tournament 34 outcome, insn 3852928, accesses 8, hits 2,    config 2 -way
larger tournament 35, insn 3969652, accesses_since_last 117811,      miss_sat 2, miss_rat 0.000807
larger tournament 35 outcome, insn 3969744, accesses 107, hits 2, config 3 -way
smaller tournament 36, insn 4097748, accesses_since_last 131073, miss_sat 0, miss_rat 0.000783
smaller tournament 36 outcome, insn 4105871, accesses 8193, hits 0,    config 2 -way
larger tournament 37, insn 4160198, accesses_since_last 55367,      miss_sat 2, miss_rat 0.000786
larger tournament 37 outcome, insn 4160326, accesses 156, hits 2, config 3 -way
smaller tournament 38, insn 4284940, accesses_since_last 131073, miss_sat 0, miss_rat 0.000798
smaller tournament 38 outcome, insn 4292832, accesses 8193, hits 1,    config 2 -way
smaller tournament 39, insn 4421909, accesses_since_last 131073, miss_sat 0, miss_rat 0.000803
smaller tournament 39 outcome, insn 4422097, accesses 188, hits 2,    config 2 -way
larger tournament 40, insn 4467076, accesses_since_last 45579,      miss_sat 2, miss_rat 0.000798
larger tournament 40 outcome, insn 4467085, accesses 11, hits 2, config 3 -way
smaller tournament 41, insn 4596724, accesses_since_last 131073, miss_sat 0, miss_rat 0.000777
smaller tournament 41 outcome, insn 4604863, accesses 8193, hits 0,    config 2 -way
smaller tournament 42, insn 4734551, accesses_since_last 131073, miss_sat 0, miss_rat 0.000758
smaller tournament 42 outcome, insn 4734682, accesses 129, hits 2,    config 2 -way
smaller tournament 43, insn 4864299, accesses_since_last 131073, miss_sat 0, miss_rat 0.000744
smaller tournament 43 outcome, insn 4864819, accesses 518, hits 2,    config 2 -way
larger tournament 44, insn 4983533, accesses_since_last 120155,      miss_sat 2, miss_rat 0.000741
larger tournament 44 outcome, insn 4983656, accesses 150, hits 2, config 3 -way
larger tournament 45, insn 5087073, accesses_since_last 109359,      miss_sat 2, miss_rat 0.000755
larger tournament 45 outcome, insn 5092349, accesses 5359, hits 2, config 4 -way
smaller tournament 46, insn 5219292, accesses_since_last 131073, miss_sat 0, miss_rat 0.000770
smaller tournament 46 outcome, insn 5227486, accesses 8193, hits 0,    config 3 -way
larger tournament 47, insn 5260360, accesses_since_last 32952,      miss_sat 2, miss_rat 0.000767
larger tournament 47 outcome, insn 5260368, accesses 10, hits 2, config 4 -way
smaller tournament 48, insn 5390851, accesses_since_last 131073, miss_sat 0, miss_rat 0.000752
smaller tournament 48 outcome, insn 5399045, accesses 8193, hits 0,    config 3 -way
larger tournament 49, insn 5465441, accesses_since_last 67305,      miss_sat 2, miss_rat 0.000750
larger tournament 49 outcome, insn 5473256, accesses 8193, hits 0, config 3 -way
larger tournament 50, insn 5473795, accesses_since_last 610,      miss_sat 2, miss_rat 0.000758
larger tournament 50 outcome, insn 5481697, accesses 8193, hits 0, config 3 -way
smaller tournament 51, insn 5609073, accesses_since_last 131073, miss_sat 0, miss_rat 0.000768
smaller tournament 51 outcome, insn 5609218, accesses 149, hits 2,    config 3 -way
larger tournament 52, insn 5634760, accesses_since_last 26000,      miss_sat 2, miss_rat 0.000779
larger tournament 52 outcome, insn 5642743, accesses 8193, hits 0, config 3 -way
larger tournament 53, insn 5645853, accesses_since_last 3144,      miss_sat 2, miss_rat 0.000789
larger tournament 53 outcome, insn 5649098, accesses 3309, hits 2, config 4 -way
smaller tournament 54, insn 5777003, accesses_since_last 131073, miss_sat 0, miss_rat 0.000796
smaller tournament 54 outcome, insn 5785081, accesses 8193, hits 0,    config 3 -way
smaller tournament 55, insn 5913610, accesses_since_last 131073, miss_sat 0, miss_rat 0.000798
smaller tournament 55 outcome, insn 5914657, accesses 1129, hits 2,    config 3 -way
larger tournament 56, insn 5926175, accesses_since_last 12288,      miss_sat 2, miss_rat 0.000799
larger tournament 56 outcome, insn 5928243, accesses 2207, hits 2, config 4 -way
smaller tournament 57, insn 6054506, accesses_since_last 131073, miss_sat 0, miss_rat 0.000786
smaller tournament 57 outcome, insn 6062362, accesses 8193, hits 0,    config 3 -way
larger tournament 58, insn 6114237, accesses_since_last 54590,      miss_sat 2, miss_rat 0.000791
larger tournament 58 outcome, insn 6114242, accesses 7, hits 2, config 4 -way
smaller tournament 59, insn 6238898, accesses_since_last 131073, miss_sat 0, miss_rat 0.000780
smaller tournament 59 outcome, insn 6247093, accesses 8193, hits 0,    config 3 -way
larger tournament 60, insn 6304304, accesses_since_last 60096,      miss_sat 2, miss_rat 0.000791
larger tournament 60 outcome, insn 6304786, accesses 632, hits 2, config 4 -way
smaller tournament 61, insn 6432828, accesses_since_last 131073, miss_sat 0, miss_rat 0.000787
smaller tournament 61 outcome, insn 6441023, accesses 8193, hits 0,    config 3 -way
larger tournament 62, insn 6456931, accesses_since_last 16210,      miss_sat 2, miss_rat 0.000789
larger tournament 62 outcome, insn 6464989, accesses 8193, hits 0, config 3 -way
larger tournament 63, insn 6533789, accesses_since_last 69442,      miss_sat 2, miss_rat 0.000790
larger tournament 63 outcome, insn 6537105, accesses 4041, hits 2, config 4 -way
smaller tournament 64, insn 6659122, accesses_since_last 131073, miss_sat 0, miss_rat 0.000831
smaller tournament 64 outcome, insn 6659536, accesses 466, hits 2,    config 4 -way
smaller tournament 65, insn 6782696, accesses_since_last 131073, miss_sat 0, miss_rat 0.000819
smaller tournament 65 outcome, insn 6784163, accesses 1696, hits 2,    config 4 -way
smaller tournament 66, insn 6906583, accesses_since_last 131073, miss_sat 0, miss_rat 0.000808
smaller tournament 66 outcome, insn 6906697, accesses 120, hits 2,    config 4 -way
smaller tournament 67, insn 7028819, accesses_since_last 131073, miss_sat 0, miss_rat 0.000797
smaller tournament 67 outcome, insn 7029470, accesses 828, hits 2,    config 4 -way
smaller tournament 68, insn 7152185, accesses_since_last 131073, miss_sat 0, miss_rat 0.000792
smaller tournament 68 outcome, insn 7152621, accesses 434, hits 2,    config 4 -way
smaller tournament 69, insn 7275506, accesses_since_last 131073, miss_sat 0, miss_rat 0.000782
smaller tournament 69 outcome, insn 7276508, accesses 1122, hits 2,    config 4 -way
smaller tournament 70, insn 7398741, accesses_since_last 131073, miss_sat 0, miss_rat 0.000771
smaller tournament 70 outcome, insn 7404903, accesses 6459, hits 2,    config 4 -way
smaller tournament 71, insn 7527051, accesses_since_last 131073, miss_sat 0, miss_rat 0.000768
smaller tournament 71 outcome, insn 7533309, accesses 6753, hits 2,    config 4 -way
smaller tournament 72, insn 7655945, accesses_since_last 131073, miss_sat 0, miss_rat 0.000758
smaller tournament 72 outcome, insn 7658060, accesses 2309, hits 2,    config 4 -way
smaller tournament 73, insn 7781059, accesses_since_last 131073, miss_sat 0, miss_rat 0.000748
smaller tournament 73 outcome, insn 7785129, accesses 4122, hits 2,    config 4 -way
smaller tournament 74, insn 7907265, accesses_since_last 131073, miss_sat 0, miss_rat 0.000739
smaller tournament 74 outcome, insn 7911685, accesses 4722, hits 2,    config 4 -way
smaller tournament 75, insn 8034416, accesses_since_last 131073, miss_sat 0, miss_rat 0.000729
smaller tournament 75 outcome, insn 8034743, accesses 413, hits 2,    config 4 -way
smaller tournament 76, insn 8157571, accesses_since_last 131073, miss_sat 0, miss_rat 0.000721
smaller tournament 76 outcome, insn 8163524, accesses 6367, hits 2,    config 4 -way
smaller tournament 77, insn 8286037, accesses_since_last 131073, miss_sat 0, miss_rat 0.000712
smaller tournament 77 outcome, insn 8293982, accesses 8193, hits 0,    config 3 -way
larger tournament 78, insn 8315105, accesses_since_last 22167,      miss_sat 2, miss_rat 0.000714
larger tournament 78 outcome, insn 8319744, accesses 5113, hits 2, config 4 -way
smaller tournament 79, insn 8442752, accesses_since_last 131073, miss_sat 0, miss_rat 0.000706
smaller tournament 79 outcome, insn 8444919, accesses 2167, hits 2,    config 4 -way
smaller tournament 80, insn 8567604, accesses_since_last 131073, miss_sat 0, miss_rat 0.000698
smaller tournament 80 outcome, insn 8569273, accesses 1669, hits 2,    config 4 -way
smaller tournament 81, insn 8691811, accesses_since_last 131073, miss_sat 0, miss_rat 0.000690
smaller tournament 81 outcome, insn 8692938, accesses 1275, hits 2,    config 4 -way
smaller tournament 82, insn 8815817, accesses_since_last 131073, miss_sat 0, miss_rat 0.000683
smaller tournament 82 outcome, insn 8815860, accesses 59, hits 2,    config 4 -way
smaller tournament 83, insn 8938492, accesses_since_last 131073, miss_sat 0, miss_rat 0.000676
smaller tournament 83 outcome, insn 8946232, accesses 8193, hits 0,    config 3 -way
larger tournament 84, insn 8967522, accesses_since_last 22465,      miss_sat 2, miss_rat 0.000678
larger tournament 84 outcome, insn 8972161, accesses 5148, hits 2, config 4 -way
smaller tournament 85, insn 9095145, accesses_since_last 131073, miss_sat 0, miss_rat 0.000670
smaller tournament 85 outcome, insn 9095447, accesses 314, hits 2,    config 4 -way
smaller tournament 86, insn 9218367, accesses_since_last 131073, miss_sat 0, miss_rat 0.000664
smaller tournament 86 outcome, insn 9222622, accesses 4305, hits 2,    config 4 -way
smaller tournament 87, insn 9345126, accesses_since_last 131073, miss_sat 0, miss_rat 0.000657
smaller tournament 87 outcome, insn 9350288, accesses 5213, hits 2,    config 4 -way
smaller tournament 88, insn 9472699, accesses_since_last 131073, miss_sat 0, miss_rat 0.000650
smaller tournament 88 outcome, insn 9473432, accesses 732, hits 2,    config 4 -way
smaller tournament 89, insn 9596327, accesses_since_last 131073, miss_sat 0, miss_rat 0.000644
smaller tournament 89 outcome, insn 9596697, accesses 465, hits 2,    config 4 -way
smaller tournament 90, insn 9719358, accesses_since_last 131073, miss_sat 0, miss_rat 0.000638
smaller tournament 90 outcome, insn 9724023, accesses 4853, hits 2,    config 4 -way
smaller tournament 91, insn 9846873, accesses_since_last 131073, miss_sat 0, miss_rat 0.000631
smaller tournament 91 outcome, insn 9849723, accesses 2936, hits 2,    config 4 -way
smaller tournament 92, insn 9972836, accesses_since_last 131073, miss_sat 0, miss_rat 0.000625
smaller tournament 92 outcome, insn 9973135, accesses 332, hits 2,    config 4 -way
smaller tournament 93, insn 10095949, accesses_since_last 131073, miss_sat 0, miss_rat 0.000619
smaller tournament 93 outcome, insn 10102419, accesses 6935, hits 2,    config 4 -way
smaller tournament 94, insn 10225489, accesses_since_last 131073, miss_sat 0, miss_rat 0.000613
smaller tournament 94 outcome, insn 10227406, accesses 1928, hits 2,    config 4 -way
smaller tournament 95, insn 10349937, accesses_since_last 131073, miss_sat 0, miss_rat 0.000608
smaller tournament 95 outcome, insn 10350762, accesses 825, hits 2,    config 4 -way
smaller tournament 96, insn 10473157, accesses_since_last 131073, miss_sat 0, miss_rat 0.000604
smaller tournament 96 outcome, insn 10477381, accesses 4613, hits 2,    config 4 -way
smaller tournament 97, insn 10600128, accesses_since_last 131073, miss_sat 0, miss_rat 0.000603
smaller tournament 97 outcome, insn 10607967, accesses 8193, hits 0,    config 3 -way
larger tournament 98, insn 10634160, accesses_since_last 27695,      miss_sat 2, miss_rat 0.000605
larger tournament 98 outcome, insn 10638799, accesses 5113, hits 2, config 4 -way
smaller tournament 99, insn 10761432, accesses_since_last 131073, miss_sat 0, miss_rat 0.000601
smaller tournament 99 outcome, insn 10765976, accesses 4811, hits 2,    config 4 -way
smaller tournament 100, insn 10889025, accesses_since_last 131073, miss_sat 0, miss_rat 0.000595
smaller tournament 100 outcome, insn 10893582, accesses 4710, hits 2,    config 4 -way
smaller tournament 101, insn 11015847, accesses_since_last 131073, miss_sat 0, miss_rat 0.000590
smaller tournament 101 outcome, insn 11020359, accesses 4664, hits 2,    config 4 -way
smaller tournament 102, insn 11143219, accesses_since_last 131073, miss_sat 0, miss_rat 0.000585
smaller tournament 102 outcome, insn 11143888, accesses 693, hits 2,    config 4 -way
smaller tournament 103, insn 11266907, accesses_since_last 131073, miss_sat 0, miss_rat 0.000580
smaller tournament 103 outcome, insn 11270541, accesses 3899, hits 2,    config 4 -way
smaller tournament 104, insn 11393125, accesses_since_last 131073, miss_sat 0, miss_rat 0.000576
smaller tournament 104 outcome, insn 11395544, accesses 2692, hits 2,    config 4 -way
smaller tournament 105, insn 11518399, accesses_since_last 131073, miss_sat 0, miss_rat 0.000571
smaller tournament 105 outcome, insn 11518963, accesses 630, hits 2,    config 4 -way
smaller tournament 106, insn 11641558, accesses_since_last 131073, miss_sat 0, miss_rat 0.000567
smaller tournament 106 outcome, insn 11642991, accesses 1433, hits 2,    config 4 -way
smaller tournament 107, insn 11765461, accesses_since_last 131073, miss_sat 0, miss_rat 0.000563
smaller tournament 107 outcome, insn 11766877, accesses 1600, hits 2,    config 4 -way
smaller tournament 108, insn 11889342, accesses_since_last 131073, miss_sat 0, miss_rat 0.000558
smaller tournament 108 outcome, insn 11892383, accesses 3127, hits 2,    config 4 -way
smaller tournament 109, insn 12014840, accesses_since_last 131073, miss_sat 0, miss_rat 0.000554
smaller tournament 109 outcome, insn 12015554, accesses 953, hits 2,    config 4 -way
smaller tournament 110, insn 12139087, accesses_since_last 131073, miss_sat 0, miss_rat 0.000550
smaller tournament 110 outcome, insn 12139104, accesses 15, hits 2,    config 4 -way
smaller tournament 111, insn 12261892, accesses_since_last 131073, miss_sat 0, miss_rat 0.000546
smaller tournament 111 outcome, insn 12265002, accesses 3474, hits 2,    config 4 -way
smaller tournament 112, insn 12387946, accesses_since_last 131073, miss_sat 0, miss_rat 0.000542
smaller tournament 112 outcome, insn 12389310, accesses 1595, hits 2,    config 4 -way
smaller tournament 113, insn 12511896, accesses_since_last 131073, miss_sat 0, miss_rat 0.000538
smaller tournament 113 outcome, insn 12515990, accesses 4152, hits 2,    config 4 -way
smaller tournament 114, insn 12638255, accesses_since_last 131073, miss_sat 0, miss_rat 0.000534
smaller tournament 114 outcome, insn 12644938, accesses 7085, hits 2,    config 4 -way
smaller tournament 115, insn 12767811, accesses_since_last 131073, miss_sat 0, miss_rat 0.000530
smaller tournament 115 outcome, insn 12772557, accesses 4896, hits 2,    config 4 -way
smaller tournament 116, insn 12895479, accesses_since_last 131073, miss_sat 0, miss_rat 0.000526
smaller tournament 116 outcome, insn 12896203, accesses 1002, hits 2,    config 4 -way
smaller tournament 117, insn 13019395, accesses_since_last 131073, miss_sat 0, miss_rat 0.000523
smaller tournament 117 outcome, insn 13019645, accesses 250, hits 2,    config 4 -way
smaller tournament 118, insn 13142404, accesses_since_last 131073, miss_sat 0, miss_rat 0.000520
smaller tournament 118 outcome, insn 13148110, accesses 6122, hits 2,    config 4 -way
smaller tournament 119, insn 13270704, accesses_since_last 131073, miss_sat 0, miss_rat 0.000516
smaller tournament 119 outcome, insn 13273185, accesses 2499, hits 2,    config 4 -way
smaller tournament 120, insn 13395369, accesses_since_last 131073, miss_sat 0, miss_rat 0.000513
smaller tournament 120 outcome, insn 13396832, accesses 1616, hits 2,    config 4 -way
smaller tournament 121, insn 13519575, accesses_since_last 131073, miss_sat 0, miss_rat 0.000510
smaller tournament 121 outcome, insn 13520931, accesses 1382, hits 2,    config 4 -way
smaller tournament 122, insn 13644198, accesses_since_last 131073, miss_sat 0, miss_rat 0.000506
smaller tournament 122 outcome, insn 13645899, accesses 1802, hits 2,    config 4 -way
smaller tournament 123, insn 13768719, accesses_since_last 131073, miss_sat 0, miss_rat 0.000503
smaller tournament 123 outcome, insn 13771742, accesses 3149, hits 2,    config 4 -way
smaller tournament 124, insn 13894451, accesses_since_last 131073, miss_sat 0, miss_rat 0.000500
smaller tournament 124 outcome, insn 13895076, accesses 653, hits 2,    config 4 -way
smaller tournament 125, insn 14018657, accesses_since_last 131073, miss_sat 0, miss_rat 0.000496
smaller tournament 125 outcome, insn 14019139, accesses 493, hits 2,    config 4 -way
smaller tournament 126, insn 14141291, accesses_since_last 131073, miss_sat 0, miss_rat 0.000493
smaller tournament 126 outcome, insn 14144326, accesses 3035, hits 2,    config 4 -way
smaller tournament 127, insn 14267394, accesses_since_last 131073, miss_sat 0, miss_rat 0.000490
smaller tournament 127 outcome, insn 14268684, accesses 1315, hits 2,    config 4 -way
smaller tournament 128, insn 14391661, accesses_since_last 131073, miss_sat 0, miss_rat 0.000487
smaller tournament 128 outcome, insn 14394712, accesses 3264, hits 2,    config 4 -way
smaller tournament 129, insn 14517523, accesses_since_last 131073, miss_sat 0, miss_rat 0.000484
smaller tournament 129 outcome, insn 14519850, accesses 2327, hits 2,    config 4 -way
smaller tournament 130, insn 14642627, accesses_since_last 131073, miss_sat 0, miss_rat 0.000481
smaller tournament 130 outcome, insn 14650349, accesses 8193, hits 0,    config 3 -way
larger tournament 131, insn 14671909, accesses_since_last 22681,      miss_sat 2, miss_rat 0.000483
larger tournament 131 outcome, insn 14676548, accesses 5113, hits 2, config 4 -way
smaller tournament 132, insn 14799474, accesses_since_last 131073, miss_sat 0, miss_rat 0.000480
smaller tournament 132 outcome, insn 14799549, accesses 97, hits 2,    config 4 -way
smaller tournament 133, insn 14922012, accesses_since_last 131073, miss_sat 0, miss_rat 0.000478
smaller tournament 133 outcome, insn 14929818, accesses 8193, hits 0,    config 3 -way
larger tournament 134, insn 14951065, accesses_since_last 22315,      miss_sat 2, miss_rat 0.000479
larger tournament 134 outcome, insn 14955704, accesses 5113, hits 2, config 4 -way
smaller tournament 135, insn 15078666, accesses_since_last 131073, miss_sat 0, miss_rat 0.000476
smaller tournament 135 outcome, insn 15082124, accesses 3748, hits 2,    config 4 -way
smaller tournament 136, insn 15204315, accesses_since_last 131073, miss_sat 0, miss_rat 0.000474
smaller tournament 136 outcome, insn 15206146, accesses 1995, hits 2,    config 4 -way
smaller tournament 137, insn 15328906, accesses_since_last 131073, miss_sat 0, miss_rat 0.000471
smaller tournament 137 outcome, insn 15328978, accesses 88, hits 2,    config 4 -way
smaller tournament 138, insn 15452548, accesses_since_last 131073, miss_sat 0, miss_rat 0.000469
smaller tournament 138 outcome, insn 15452802, accesses 252, hits 2,    config 4 -way
smaller tournament 139, insn 15575968, accesses_since_last 131073, miss_sat 0, miss_rat 0.000466
smaller tournament 139 outcome, insn 15581819, accesses 6351, hits 2,    config 4 -way
smaller tournament 140, insn 15703879, accesses_since_last 131073, miss_sat 0, miss_rat 0.000464
smaller tournament 140 outcome, insn 15707361, accesses 3853, hits 2,    config 4 -way
smaller tournament 141, insn 15830728, accesses_since_last 131073, miss_sat 0, miss_rat 0.000461
smaller tournament 141 outcome, insn 15830764, accesses 37, hits 2,    config 4 -way
smaller tournament 142, insn 15954210, accesses_since_last 131073, miss_sat 0, miss_rat 0.000458
smaller tournament 142 outcome, insn 15954689, accesses 488, hits 2,    config 4 -way
smaller tournament 143, insn 16077112, accesses_since_last 131073, miss_sat 0, miss_rat 0.000456
smaller tournament 143 outcome, insn 16080317, accesses 3408, hits 2,    config 4 -way
smaller tournament 144, insn 16203050, accesses_since_last 131073, miss_sat 0, miss_rat 0.000454
smaller tournament 144 outcome, insn 16203549, accesses 579, hits 2,    config 4 -way
smaller tournament 145, insn 16326544, accesses_since_last 131073, miss_sat 0, miss_rat 0.000451
smaller tournament 145 outcome, insn 16326877, accesses 366, hits 2,    config 4 -way
smaller tournament 146, insn 16449858, accesses_since_last 131073, miss_sat 0, miss_rat 0.000449
smaller tournament 146 outcome, insn 16452954, accesses 3404, hits 2,    config 4 -way
smaller tournament 147, insn 16575531, accesses_since_last 131073, miss_sat 0, miss_rat 0.000447
smaller tournament 147 outcome, insn 16579282, accesses 3990, hits 2,    config 4 -way
smaller tournament 148, insn 16702580, accesses_since_last 131073, miss_sat 0, miss_rat 0.000444
smaller tournament 148 outcome, insn 16702626, accesses 45, hits 2,    config 4 -way
smaller tournament 149, insn 16825657, accesses_since_last 131073, miss_sat 0, miss_rat 0.000442
smaller tournament 149 outcome, insn 16826534, accesses 904, hits 2,    config 4 -way
smaller tournament 150, insn 16949319, accesses_since_last 131073, miss_sat 0, miss_rat 0.000440
smaller tournament 150 outcome, insn 16950993, accesses 1685, hits 2,    config 4 -way
smaller tournament 151, insn 17073121, accesses_since_last 131073, miss_sat 0, miss_rat 0.000438
smaller tournament 151 outcome, insn 17076388, accesses 3291, hits 2,    config 4 -way
smaller tournament 152, insn 17199236, accesses_since_last 131073, miss_sat 0, miss_rat 0.000436
smaller tournament 152 outcome, insn 17200102, accesses 1003, hits 2,    config 4 -way
smaller tournament 153, insn 17323363, accesses_since_last 131073, miss_sat 0, miss_rat 0.000434
smaller tournament 153 outcome, insn 17328502, accesses 5537, hits 2,    config 4 -way
smaller tournament 154, insn 17451652, accesses_since_last 131073, miss_sat 0, miss_rat 0.000432
smaller tournament 154 outcome, insn 17453115, accesses 1670, hits 2,    config 4 -way
smaller tournament 155, insn 17575672, accesses_since_last 131073, miss_sat 0, miss_rat 0.000430
smaller tournament 155 outcome, insn 17581836, accesses 6239, hits 2,    config 4 -way
smaller tournament 156, insn 17704419, accesses_since_last 131073, miss_sat 0, miss_rat 0.000428
smaller tournament 156 outcome, insn 17705736, accesses 1343, hits 2,    config 4 -way
smaller tournament 157, insn 17828560, accesses_since_last 131073, miss_sat 0, miss_rat 0.000426
smaller tournament 157 outcome, insn 17829168, accesses 728, hits 2,    config 4 -way
smaller tournament 158, insn 17952476, accesses_since_last 131073, miss_sat 0, miss_rat 0.000424
smaller tournament 158 outcome, insn 17956897, accesses 4921, hits 2,    config 4 -way
smaller tournament 159, insn 18079725, accesses_since_last 131073, miss_sat 0, miss_rat 0.000422
smaller tournament 159 outcome, insn 18081231, accesses 1506, hits 2,    config 4 -way
smaller tournament 160, insn 18203687, accesses_since_last 131073, miss_sat 0, miss_rat 0.000420
smaller tournament 160 outcome, insn 18205208, accesses 1588, hits 2,    config 4 -way
smaller tournament 161, insn 18328481, accesses_since_last 131073, miss_sat 0, miss_rat 0.000418
smaller tournament 161 outcome, insn 18330036, accesses 1674, hits 2,    config 4 -way
smaller tournament 162, insn 18453091, accesses_since_last 131073, miss_sat 0, miss_rat 0.000417
smaller tournament 162 outcome, insn 18457281, accesses 4251, hits 2,    config 4 -way
smaller tournament 163, insn 18579749, accesses_since_last 131073, miss_sat 0, miss_rat 0.000415
smaller tournament 163 outcome, insn 18585299, accesses 5958, hits 2,    config 4 -way
smaller tournament 164, insn 18707866, accesses_since_last 131073, miss_sat 0, miss_rat 0.000413
smaller tournament 164 outcome, insn 18712357, accesses 4644, hits 2,    config 4 -way
smaller tournament 165, insn 18835697, accesses_since_last 131073, miss_sat 0, miss_rat 0.000411
smaller tournament 165 outcome, insn 18837158, accesses 1576, hits 2,    config 4 -way
smaller tournament 166, insn 18960044, accesses_since_last 131073, miss_sat 0, miss_rat 0.000410
smaller tournament 166 outcome, insn 18965605, accesses 6018, hits 2,    config 4 -way
smaller tournament 167, insn 19088598, accesses_since_last 131073, miss_sat 0, miss_rat 0.000408
smaller tournament 167 outcome, insn 19090029, accesses 1439, hits 2,    config 4 -way
smaller tournament 168, insn 19212473, accesses_since_last 131073, miss_sat 0, miss_rat 0.000406
smaller tournament 168 outcome, insn 19217451, accesses 5355, hits 2,    config 4 -way
smaller tournament 169, insn 19340373, accesses_since_last 131073, miss_sat 0, miss_rat 0.000405
smaller tournament 169 outcome, insn 19341403, accesses 1054, hits 2,    config 4 -way
smaller tournament 170, insn 19464327, accesses_since_last 131073, miss_sat 0, miss_rat 0.000403
smaller tournament 170 outcome, insn 19464698, accesses 389, hits 2,    config 4 -way
smaller tournament 171, insn 19587841, accesses_since_last 131073, miss_sat 0, miss_rat 0.000401
smaller tournament 171 outcome, insn 19592216, accesses 4841, hits 2,    config 4 -way
smaller tournament 172, insn 19715441, accesses_since_last 131073, miss_sat 0, miss_rat 0.000400
smaller tournament 172 outcome, insn 19717124, accesses 1840, hits 2,    config 4 -way
smaller tournament 173, insn 19840009, accesses_since_last 131073, miss_sat 0, miss_rat 0.000398
smaller tournament 173 outcome, insn 19841074, accesses 1223, hits 2,    config 4 -way
smaller tournament 174, insn 19963869, accesses_since_last 131073, miss_sat 0, miss_rat 0.000397
smaller tournament 174 outcome, insn 19964252, accesses 485, hits 2,    config 4 -way
smaller tournament 175, insn 20087379, accesses_since_last 131073, miss_sat 0, miss_rat 0.000395
smaller tournament 175 outcome, insn 20092020, accesses 4959, hits 2,    config 4 -way
smaller tournament 176, insn 20214538, accesses_since_last 131073, miss_sat 0, miss_rat 0.000394
smaller tournament 176 outcome, insn 20216521, accesses 1982, hits 2,    config 4 -way
smaller tournament 177, insn 20338889, accesses_since_last 131073, miss_sat 0, miss_rat 0.000392
smaller tournament 177 outcome, insn 20340077, accesses 1234, hits 2,    config 4 -way
smaller tournament 178, insn 20462757, accesses_since_last 131073, miss_sat 0, miss_rat 0.000391
smaller tournament 178 outcome, insn 20463395, accesses 826, hits 2,    config 4 -way
smaller tournament 179, insn 20587033, accesses_since_last 131073, miss_sat 0, miss_rat 0.000389
smaller tournament 179 outcome, insn 20591828, accesses 5184, hits 2,    config 4 -way
smaller tournament 180, insn 20714767, accesses_since_last 131073, miss_sat 0, miss_rat 0.000388
smaller tournament 180 outcome, insn 20718224, accesses 3679, hits 2,    config 4 -way
smaller tournament 181, insn 20840458, accesses_since_last 131073, miss_sat 0, miss_rat 0.000386
smaller tournament 181 outcome, insn 20841396, accesses 951, hits 2,    config 4 -way
smaller tournament 182, insn 20964633, accesses_since_last 131073, miss_sat 0, miss_rat 0.000385
smaller tournament 182 outcome, insn 20967516, accesses 3086, hits 2,    config 4 -way
smaller tournament 183, insn 21090172, accesses_since_last 131073, miss_sat 0, miss_rat 0.000383
smaller tournament 183 outcome, insn 21093336, accesses 3171, hits 2,    config 4 -way
smaller tournament 184, insn 21216052, accesses_since_last 131073, miss_sat 0, miss_rat 0.000382
smaller tournament 184 outcome, insn 21216584, accesses 530, hits 2,    config 4 -way
smaller tournament 185, insn 21339928, accesses_since_last 131073, miss_sat 0, miss_rat 0.000380
smaller tournament 185 outcome, insn 21340682, accesses 763, hits 2,    config 4 -way
smaller tournament 186, insn 21463722, accesses_since_last 131073, miss_sat 0, miss_rat 0.000379
smaller tournament 186 outcome, insn 21466198, accesses 2492, hits 2,    config 4 -way
smaller tournament 187, insn 21589245, accesses_since_last 131073, miss_sat 0, miss_rat 0.000378
smaller tournament 187 outcome, insn 21592120, accesses 3016, hits 2,    config 4 -way
smaller tournament 188, insn 21714835, accesses_since_last 131073, miss_sat 0, miss_rat 0.000376
smaller tournament 188 outcome, insn 21715441, accesses 663, hits 2,    config 4 -way
smaller tournament 189, insn 21838161, accesses_since_last 131073, miss_sat 0, miss_rat 0.000375
smaller tournament 189 outcome, insn 21846039, accesses 8193, hits 0,    config 3 -way
larger tournament 190, insn 21866974, accesses_since_last 22076,      miss_sat 2, miss_rat 0.000376
larger tournament 190 outcome, insn 21871613, accesses 5113, hits 2, config 4 -way
smaller tournament 191, insn 21994521, accesses_since_last 131073, miss_sat 0, miss_rat 0.000375
smaller tournament 191 outcome, insn 21995690, accesses 1324, hits 2,    config 4 -way
smaller tournament 192, insn 22118335, accesses_since_last 131073, miss_sat 0, miss_rat 0.000374
smaller tournament 192 outcome, insn 22121992, accesses 3743, hits 2,    config 4 -way
smaller tournament 193, insn 22245703, accesses_since_last 131073, miss_sat 0, miss_rat 0.000372
smaller tournament 193 outcome, insn 22251317, accesses 6092, hits 2,    config 4 -way
smaller tournament 194, insn 22373928, accesses_since_last 131073, miss_sat 0, miss_rat 0.000371
smaller tournament 194 outcome, insn 22378290, accesses 4441, hits 2,    config 4 -way
smaller tournament 195, insn 22500845, accesses_since_last 131073, miss_sat 0, miss_rat 0.000370
smaller tournament 195 outcome, insn 22508601, accesses 8193, hits 0,    config 3 -way
larger tournament 196, insn 22534034, accesses_since_last 26951,      miss_sat 2, miss_rat 0.000371
larger tournament 196 outcome, insn 22538673, accesses 5148, hits 2, config 4 -way
smaller tournament 197, insn 22661551, accesses_since_last 131073, miss_sat 0, miss_rat 0.000370
smaller tournament 197 outcome, insn 22662742, accesses 1190, hits 2,    config 4 -way
smaller tournament 198, insn 22785705, accesses_since_last 131073, miss_sat 0, miss_rat 0.000369
smaller tournament 198 outcome, insn 22785976, accesses 273, hits 2,    config 4 -way
smaller tournament 199, insn 22909206, accesses_since_last 131073, miss_sat 0, miss_rat 0.000367
smaller tournament 199 outcome, insn 22909225, accesses 25, hits 2,    config 4 -way
smaller tournament 200, insn 23031766, accesses_since_last 131073, miss_sat 0, miss_rat 0.000366
smaller tournament 200 outcome, insn 23038518, accesses 7153, hits 2,    config 4 -way
smaller tournament 201, insn 23161266, accesses_since_last 131073, miss_sat 0, miss_rat 0.000365
smaller tournament 201 outcome, insn 23161821, accesses 648, hits 2,    config 4 -way
smaller tournament 202, insn 23285158, accesses_since_last 131073, miss_sat 0, miss_rat 0.000364
smaller tournament 202 outcome, insn 23285506, accesses 378, hits 2,    config 4 -way
smaller tournament 203, insn 23408775, accesses_since_last 131073, miss_sat 0, miss_rat 0.000363
smaller tournament 203 outcome, insn 23411483, accesses 3006, hits 2,    config 4 -way
smaller tournament 204, insn 23533861, accesses_since_last 131073, miss_sat 0, miss_rat 0.000362
smaller tournament 204 outcome, insn 23534257, accesses 404, hits 2,    config 4 -way
smaller tournament 205, insn 23657589, accesses_since_last 131073, miss_sat 0, miss_rat 0.000361
smaller tournament 205 outcome, insn 23660383, accesses 2936, hits 2,    config 4 -way
smaller tournament 206, insn 23783403, accesses_since_last 131073, miss_sat 0, miss_rat 0.000360
smaller tournament 206 outcome, insn 23785979, accesses 2839, hits 2,    config 4 -way
smaller tournament 207, insn 23908101, accesses_since_last 131073, miss_sat 0, miss_rat 0.000363
smaller tournament 207 outcome, insn 23910264, accesses 2240, hits 2,    config 4 -way
smaller tournament 208, insn 24039508, accesses_since_last 131073, miss_sat 0, miss_rat 0.000366
smaller tournament 208 outcome, insn 24040254, accesses 858, hits 2,    config 4 -way
smaller tournament 209, insn 24169671, accesses_since_last 131073, miss_sat 0, miss_rat 0.000367
smaller tournament 209 outcome, insn 24177474, accesses 8193, hits 0,    config 3 -way
smaller tournament 210, insn 24306830, accesses_since_last 131073, miss_sat 0, miss_rat 0.000366
smaller tournament 210 outcome, insn 24307059, accesses 259, hits 2,    config 3 -way
smaller tournament 211, insn 24435935, accesses_since_last 131073, miss_sat 0, miss_rat 0.000366
smaller tournament 211 outcome, insn 24444066, accesses 8193, hits 0,    config 2 -way
larger tournament 212, insn 24526657, accesses_since_last 83505,      miss_sat 2, miss_rat 0.000367
larger tournament 212 outcome, insn 24526991, accesses 336, hits 2, config 3 -way
smaller tournament 213, insn 24656957, accesses_since_last 131073, miss_sat 0, miss_rat 0.000365
smaller tournament 213 outcome, insn 24665089, accesses 8193, hits 0,    config 2 -way
larger tournament 214, insn 24710985, accesses_since_last 46804,      miss_sat 2, miss_rat 0.000367
larger tournament 214 outcome, insn 24711060, accesses 105, hits 2, config 3 -way
larger tournament 215, insn 24754145, accesses_since_last 44673,      miss_sat 2, miss_rat 0.000369
larger tournament 215 outcome, insn 24761859, accesses 7801, hits 2, config 4 -way
smaller tournament 216, insn 24890926, accesses_since_last 131073, miss_sat 0, miss_rat 0.000369
smaller tournament 216 outcome, insn 24899068, accesses 8193, hits 0,    config 3 -way
smaller tournament 217, insn 25026529, accesses_since_last 131073, miss_sat 0, miss_rat 0.000371
smaller tournament 217 outcome, insn 25034672, accesses 8193, hits 0,    config 2 -way
larger tournament 218, insn 25071297, accesses_since_last 37492,      miss_sat 2, miss_rat 0.000373
larger tournament 218 outcome, insn 25071920, accesses 639, hits 2, config 3 -way
smaller tournament 219, insn 25197504, accesses_since_last 131073, miss_sat 0, miss_rat 0.000375
smaller tournament 219 outcome, insn 25205626, accesses 8193, hits 0,    config 2 -way
larger tournament 220, insn 25231188, accesses_since_last 26381,      miss_sat 2, miss_rat 0.000378
larger tournament 220 outcome, insn 25231522, accesses 336, hits 2, config 3 -way
larger tournament 221, insn 25350556, accesses_since_last 123322,      miss_sat 2, miss_rat 0.000379
larger tournament 221 outcome, insn 25350584, accesses 30, hits 2, config 4 -way
smaller tournament 222, insn 25475061, accesses_since_last 131073, miss_sat 0, miss_rat 0.000381
smaller tournament 222 outcome, insn 25482858, accesses 8193, hits 0,    config 3 -way
larger tournament 223, insn 25603597, accesses_since_last 127383,      miss_sat 2, miss_rat 0.000381
larger tournament 223 outcome, insn 25603616, accesses 26, hits 2, config 4 -way
smaller tournament 224, insn 25727673, accesses_since_last 131073, miss_sat 0, miss_rat 0.000380
smaller tournament 224 outcome, insn 25735521, accesses 8193, hits 0,    config 3 -way
smaller tournament 225, insn 25859464, accesses_since_last 131073, miss_sat 0, miss_rat 0.000379
smaller tournament 225 outcome, insn 25861161, accesses 1751, hits 2,    config 3 -way
smaller tournament 226, insn 25985402, accesses_since_last 131073, miss_sat 0, miss_rat 0.000378
smaller tournament 226 outcome, insn 25986191, accesses 831, hits 2,    config 3 -way
smaller tournament 227, insn 26111757, accesses_since_last 131073, miss_sat 0, miss_rat 0.000376
smaller tournament 227 outcome, insn 26114134, accesses 2510, hits 2,    config 3 -way
larger tournament 228, insn 26162669, accesses_since_last 50259,      miss_sat 2, miss_rat 0.000376
larger tournament 228 outcome, insn 26163150, accesses 583, hits 2, config 4 -way
smaller tournament 229, insn 26285541, accesses_since_last 131073, miss_sat 0, miss_rat 0.000385
smaller tournament 229 outcome, insn 26293186, accesses 8193, hits 1,    config 3 -way
larger tournament 230, insn 26312654, accesses_since_last 20627,      miss_sat 2, miss_rat 0.000386
larger tournament 230 outcome, insn 26316355, accesses 3880, hits 2, config 4 -way
smaller tournament 231, insn 26440840, accesses_since_last 131073, miss_sat 0, miss_rat 0.000388
smaller tournament 231 outcome, insn 26441306, accesses 500, hits 2,    config 4 -way
smaller tournament 232, insn 26567349, accesses_since_last 131073, miss_sat 0, miss_rat 0.000394
smaller tournament 232 outcome, insn 26575114, accesses 8137, hits 2,    config 4 -way
smaller tournament 233, insn 26701578, accesses_since_last 131073, miss_sat 0, miss_rat 0.000398
smaller tournament 233 outcome, insn 26708421, accesses 6871, hits 2,    config 4 -way
smaller tournament 234, insn 26834314, accesses_since_last 131073, miss_sat 0, miss_rat 0.000401
smaller tournament 234 outcome, insn 26835442, accesses 1198, hits 2,    config 4 -way
smaller tournament 235, insn 26962593, accesses_since_last 131073, miss_sat 0, miss_rat 0.000405
smaller tournament 235 outcome, insn 26963482, accesses 933, hits 2,    config 4 -way
smaller tournament 236, insn 27089975, accesses_since_last 131073, miss_sat 0, miss_rat 0.000407
smaller tournament 236 outcome, insn 27090266, accesses 290, hits 2,    config 4 -way
smaller tournament 237, insn 27216050, accesses_since_last 131073, miss_sat 0, miss_rat 0.000410
smaller tournament 237 outcome, insn 27223681, accesses 8193, hits 0,    config 3 -way
larger tournament 238, insn 27231327, accesses_since_last 8094,      miss_sat 2, miss_rat 0.000411
larger tournament 238 outcome, insn 27232529, accesses 1276, hits 2, config 4 -way
smaller tournament 239, insn 27357942, accesses_since_last 131073, miss_sat 0, miss_rat 0.000413
smaller tournament 239 outcome, insn 27359403, accesses 1562, hits 2,    config 4 -way
smaller tournament 240, insn 27485889, accesses_since_last 131073, miss_sat 0, miss_rat 0.000414
smaller tournament 240 outcome, insn 27490855, accesses 5267, hits 2,    config 4 -way
smaller tournament 241, insn 27617467, accesses_since_last 131073, miss_sat 0, miss_rat 0.000415
smaller tournament 241 outcome, insn 27625226, accesses 7794, hits 2,    config 4 -way
smaller tournament 242, insn 27751353, accesses_since_last 131073, miss_sat 0, miss_rat 0.000416
smaller tournament 242 outcome, insn 27753301, accesses 1947, hits 2,    config 4 -way
smaller tournament 243, insn 27879842, accesses_since_last 131073, miss_sat 0, miss_rat 0.000419
smaller tournament 243 outcome, insn 27880021, accesses 187, hits 2,    config 4 -way
smaller tournament 244, insn 28007488, accesses_since_last 131073, miss_sat 0, miss_rat 0.000420
smaller tournament 244 outcome, insn 28009803, accesses 2323, hits 2,    config 4 -way
smaller tournament 245, insn 28136710, accesses_since_last 131073, miss_sat 0, miss_rat 0.000420
smaller tournament 245 outcome, insn 28137034, accesses 388, hits 2,    config 4 -way
smaller tournament 246, insn 28263501, accesses_since_last 131073, miss_sat 0, miss_rat 0.000420
smaller tournament 246 outcome, insn 28269621, accesses 6151, hits 2,    config 4 -way
smaller tournament 247, insn 28395606, accesses_since_last 131073, miss_sat 0, miss_rat 0.000421
smaller tournament 247 outcome, insn 28395618, accesses 11, hits 2,    config 4 -way
smaller tournament 248, insn 28522231, accesses_since_last 131073, miss_sat 0, miss_rat 0.000422
smaller tournament 248 outcome, insn 28522285, accesses 58, hits 2,    config 4 -way
smaller tournament 249, insn 28648563, accesses_since_last 131073, miss_sat 0, miss_rat 0.000424
smaller tournament 249 outcome, insn 28650519, accesses 1990, hits 2,    config 4 -way
smaller tournament 250, insn 28777967, accesses_since_last 131073, miss_sat 0, miss_rat 0.000425
smaller tournament 250 outcome, insn 28778331, accesses 365, hits 2,    config 4 -way
smaller tournament 251, insn 28904950, accesses_since_last 131073, miss_sat 0, miss_rat 0.000425
smaller tournament 251 outcome, insn 28906700, accesses 1881, hits 2,    config 4 -way
smaller tournament 252, insn 29033918, accesses_since_last 131073, miss_sat 0, miss_rat 0.000424
smaller tournament 252 outcome, insn 29036857, accesses 2939, hits 2,    config 4 -way
smaller tournament 253, insn 29163009, accesses_since_last 131073, miss_sat 0, miss_rat 0.000425
smaller tournament 253 outcome, insn 29163362, accesses 352, hits 2,    config 4 -way
smaller tournament 254, insn 29289882, accesses_since_last 131073, miss_sat 0, miss_rat 0.000425
smaller tournament 254 outcome, insn 29290200, accesses 418, hits 2,    config 4 -way
smaller tournament 255, insn 29416309, accesses_since_last 131073, miss_sat 0, miss_rat 0.000428
smaller tournament 255 outcome, insn 29418531, accesses 2240, hits 2,    config 4 -way
smaller tournament 256, insn 29545660, accesses_since_last 131073, miss_sat 0, miss_rat 0.000428
smaller tournament 256 outcome, insn 29545922, accesses 289, hits 2,    config 4 -way
smaller tournament 257, insn 29672854, accesses_since_last 131073, miss_sat 0, miss_rat 0.000428
smaller tournament 257 outcome, insn 29677587, accesses 4834, hits 2,    config 4 -way
smaller tournament 258, insn 29804060, accesses_since_last 131073, miss_sat 0, miss_rat 0.000428
smaller tournament 258 outcome, insn 29805744, accesses 1707, hits 2,    config 4 -way
smaller tournament 259, insn 29932693, accesses_since_last 131073, miss_sat 0, miss_rat 0.000428
smaller tournament 259 outcome, insn 29939447, accesses 6794, hits 2,    config 4 -way
smaller tournament 260, insn 30065456, accesses_since_last 131073, miss_sat 0, miss_rat 0.000429
smaller tournament 260 outcome, insn 30066169, accesses 724, hits 2,    config 4 -way
smaller tournament 261, insn 30192317, accesses_since_last 131073, miss_sat 0, miss_rat 0.000431
smaller tournament 261 outcome, insn 30193332, accesses 1096, hits 2,    config 4 -way
smaller tournament 262, insn 30320742, accesses_since_last 131073, miss_sat 0, miss_rat 0.000431
smaller tournament 262 outcome, insn 30321202, accesses 525, hits 2,    config 4 -way
smaller tournament 263, insn 30447647, accesses_since_last 131073, miss_sat 0, miss_rat 0.000431
smaller tournament 263 outcome, insn 30447695, accesses 46, hits 2,    config 4 -way
smaller tournament 264, insn 30574044, accesses_since_last 131073, miss_sat 0, miss_rat 0.000431
smaller tournament 264 outcome, insn 30575198, accesses 1177, hits 2,    config 4 -way
smaller tournament 265, insn 30701857, accesses_since_last 131073, miss_sat 0, miss_rat 0.000431
smaller tournament 265 outcome, insn 30707737, accesses 5906, hits 2,    config 4 -way
smaller tournament 266, insn 30833724, accesses_since_last 131073, miss_sat 0, miss_rat 0.000433
smaller tournament 266 outcome, insn 30836142, accesses 2449, hits 2,    config 4 -way
smaller tournament 267, insn 30962312, accesses_since_last 131073, miss_sat 0, miss_rat 0.000434
smaller tournament 267 outcome, insn 30962414, accesses 101, hits 2,    config 4 -way
smaller tournament 268, insn 31089802, accesses_since_last 131073, miss_sat 0, miss_rat 0.000434
smaller tournament 268 outcome, insn 31092375, accesses 2588, hits 2,    config 4 -way
smaller tournament 269, insn 31219289, accesses_since_last 131073, miss_sat 0, miss_rat 0.000435
smaller tournament 269 outcome, insn 31221654, accesses 2389, hits 2,    config 4 -way
smaller tournament 270, insn 31347875, accesses_since_last 131073, miss_sat 0, miss_rat 0.000435
smaller tournament 270 outcome, insn 31351571, accesses 3767, hits 2,    config 4 -way
smaller tournament 271, insn 31478274, accesses_since_last 131073, miss_sat 0, miss_rat 0.000435
smaller tournament 271 outcome, insn 31484701, accesses 6469, hits 2,    config 4 -way
smaller tournament 272, insn 31610847, accesses_since_last 131073, miss_sat 0, miss_rat 0.000435
smaller tournament 272 outcome, insn 31611669, accesses 854, hits 2,    config 4 -way
smaller tournament 273, insn 31737868, accesses_since_last 131073, miss_sat 0, miss_rat 0.000437
smaller tournament 273 outcome, insn 31738784, accesses 971, hits 2,    config 4 -way
smaller tournament 274, insn 31865863, accesses_since_last 131073, miss_sat 0, miss_rat 0.000437
smaller tournament 274 outcome, insn 31867333, accesses 1480, hits 2,    config 4 -way
smaller tournament 275, insn 31994117, accesses_since_last 131073, miss_sat 0, miss_rat 0.000438
smaller tournament 275 outcome, insn 31994643, accesses 534, hits 2,    config 4 -way
smaller tournament 276, insn 32121272, accesses_since_last 131073, miss_sat 0, miss_rat 0.000438
smaller tournament 276 outcome, insn 32124252, accesses 3107, hits 2,    config 4 -way
smaller tournament 277, insn 32251096, accesses_since_last 131073, miss_sat 0, miss_rat 0.000438
smaller tournament 277 outcome, insn 32259235, accesses 8193, hits 1,    config 3 -way
larger tournament 278, insn 32381149, accesses_since_last 126270,      miss_sat 2, miss_rat 0.000446
larger tournament 278 outcome, insn 32381165, accesses 23, hits 2, config 4 -way
smaller tournament 279, insn 32507480, accesses_since_last 131073, miss_sat 0, miss_rat 0.000447
smaller tournament 279 outcome, insn 32511519, accesses 4093, hits 2,    config 4 -way
smaller tournament 280, insn 32638096, accesses_since_last 131073, miss_sat 0, miss_rat 0.000448
smaller tournament 280 outcome, insn 32646138, accesses 8193, hits 1,    config 3 -way
larger tournament 281, insn 32661302, accesses_since_last 15833,      miss_sat 2, miss_rat 0.000449
larger tournament 281 outcome, insn 32661537, accesses 317, hits 2, config 4 -way
smaller tournament 282, insn 32788507, accesses_since_last 131073, miss_sat 0, miss_rat 0.000449
smaller tournament 282 outcome, insn 32789643, accesses 1169, hits 2,    config 4 -way
smaller tournament 283, insn 32915873, accesses_since_last 131073, miss_sat 0, miss_rat 0.000449
smaller tournament 283 outcome, insn 32917798, accesses 1924, hits 2,    config 4 -way
smaller tournament 284, insn 33044258, accesses_since_last 131073, miss_sat 0, miss_rat 0.000449
smaller tournament 284 outcome, insn 33048563, accesses 4710, hits 2,    config 4 -way
smaller tournament 285, insn 33174961, accesses_since_last 131073, miss_sat 0, miss_rat 0.000450
smaller tournament 285 outcome, insn 33178754, accesses 3803, hits 2,    config 4 -way
smaller tournament 286, insn 33304742, accesses_since_last 131073, miss_sat 0, miss_rat 0.000452
smaller tournament 286 outcome, insn 33306744, accesses 2004, hits 2,    config 4 -way
smaller tournament 287, insn 33433883, accesses_since_last 131073, miss_sat 0, miss_rat 0.000452
smaller tournament 287 outcome, insn 33434144, accesses 260, hits 2,    config 4 -way
smaller tournament 288, insn 33561514, accesses_since_last 131073, miss_sat 0, miss_rat 0.000452
smaller tournament 288 outcome, insn 33565351, accesses 3884, hits 2,    config 4 -way
smaller tournament 289, insn 33691678, accesses_since_last 131073, miss_sat 0, miss_rat 0.000452
smaller tournament 289 outcome, insn 33693820, accesses 2142, hits 2,    config 4 -way
smaller tournament 290, insn 33820236, accesses_since_last 131073, miss_sat 0, miss_rat 0.000452
smaller tournament 290 outcome, insn 33828076, accesses 8193, hits 1,    config 3 -way
larger tournament 291, insn 33868287, accesses_since_last 42027,      miss_sat 2, miss_rat 0.000455
larger tournament 291 outcome, insn 33868292, accesses 7, hits 2, config 4 -way
smaller tournament 292, insn 33995620, accesses_since_last 131073, miss_sat 0, miss_rat 0.000455
smaller tournament 292 outcome, insn 33999883, accesses 4342, hits 2,    config 4 -way
smaller tournament 293, insn 34126018, accesses_since_last 131073, miss_sat 0, miss_rat 0.000457
smaller tournament 293 outcome, insn 34130366, accesses 4627, hits 2,    config 4 -way
smaller tournament 294, insn 34257235, accesses_since_last 131073, miss_sat 0, miss_rat 0.000457
smaller tournament 294 outcome, insn 34259353, accesses 2122, hits 2,    config 4 -way
smaller tournament 295, insn 34386139, accesses_since_last 131073, miss_sat 0, miss_rat 0.000457
smaller tournament 295 outcome, insn 34386627, accesses 506, hits 2,    config 4 -way
smaller tournament 296, insn 34513968, accesses_since_last 131073, miss_sat 0, miss_rat 0.000456
smaller tournament 296 outcome, insn 34517479, accesses 3756, hits 2,    config 4 -way
smaller tournament 297, insn 34642938, accesses_since_last 131073, miss_sat 0, miss_rat 0.000458
smaller tournament 297 outcome, insn 34643007, accesses 75, hits 2,    config 4 -way
smaller tournament 298, insn 34769554, accesses_since_last 131073, miss_sat 0, miss_rat 0.000458
smaller tournament 298 outcome, insn 34774783, accesses 5278, hits 2,    config 4 -way
smaller tournament 299, insn 34901236, accesses_since_last 131073, miss_sat 0, miss_rat 0.000460
smaller tournament 299 outcome, insn 34903972, accesses 2735, hits 2,    config 4 -way
smaller tournament 300, insn 35030408, accesses_since_last 131073, miss_sat 0, miss_rat 0.000462
smaller tournament 300 outcome, insn 35031313, accesses 963, hits 2,    config 4 -way
smaller tournament 301, insn 35158512, accesses_since_last 131073, miss_sat 0, miss_rat 0.000462
smaller tournament 301 outcome, insn 35163728, accesses 5570, hits 2,    config 4 -way
smaller tournament 302, insn 35290368, accesses_since_last 131073, miss_sat 0, miss_rat 0.000462
smaller tournament 302 outcome, insn 35291064, accesses 697, hits 2,    config 4 -way
smaller tournament 303, insn 35417450, accesses_since_last 131073, miss_sat 0, miss_rat 0.000462
smaller tournament 303 outcome, insn 35418289, accesses 839, hits 2,    config 4 -way
smaller tournament 304, insn 35544824, accesses_since_last 131073, miss_sat 0, miss_rat 0.000463
smaller tournament 304 outcome, insn 35546673, accesses 1882, hits 2,    config 4 -way
smaller tournament 305, insn 35673015, accesses_since_last 131073, miss_sat 0, miss_rat 0.000464
smaller tournament 305 outcome, insn 35674749, accesses 1754, hits 2,    config 4 -way
smaller tournament 306, insn 35801989, accesses_since_last 131073, miss_sat 0, miss_rat 0.000464
smaller tournament 306 outcome, insn 35802006, accesses 17, hits 2,    config 4 -way
smaller tournament 307, insn 35928965, accesses_since_last 131073, miss_sat 0, miss_rat 0.000464
smaller tournament 307 outcome, insn 35930002, accesses 1094, hits 2,    config 4 -way
smaller tournament 308, insn 36056300, accesses_since_last 131073, miss_sat 0, miss_rat 0.000464
smaller tournament 308 outcome, insn 36057799, accesses 1522, hits 2,    config 4 -way
smaller tournament 309, insn 36184057, accesses_since_last 131073, miss_sat 0, miss_rat 0.000465
smaller tournament 309 outcome, insn 36188459, accesses 4427, hits 2,    config 4 -way
smaller tournament 310, insn 36314613, accesses_since_last 131073, miss_sat 0, miss_rat 0.000466
smaller tournament 310 outcome, insn 36318491, accesses 3937, hits 2,    config 4 -way
smaller tournament 311, insn 36445030, accesses_since_last 131073, miss_sat 0, miss_rat 0.000467
smaller tournament 311 outcome, insn 36446123, accesses 1108, hits 2,    config 4 -way
smaller tournament 312, insn 36573308, accesses_since_last 131073, miss_sat 0, miss_rat 0.000468
smaller tournament 312 outcome, insn 36573349, accesses 48, hits 2,    config 4 -way
smaller tournament 313, insn 36700268, accesses_since_last 131073, miss_sat 0, miss_rat 0.000467
smaller tournament 313 outcome, insn 36701858, accesses 1725, hits 2,    config 4 -way
smaller tournament 314, insn 36828927, accesses_since_last 131073, miss_sat 0, miss_rat 0.000467
smaller tournament 314 outcome, insn 36830116, accesses 1188, hits 2,    config 4 -way
smaller tournament 315, insn 36956029, accesses_since_last 131073, miss_sat 0, miss_rat 0.000468
smaller tournament 315 outcome, insn 36956324, accesses 310, hits 2,    config 4 -way
smaller tournament 316, insn 37083244, accesses_since_last 131073, miss_sat 0, miss_rat 0.000468
smaller tournament 316 outcome, insn 37086417, accesses 3238, hits 2,    config 4 -way
smaller tournament 317, insn 37213101, accesses_since_last 131073, miss_sat 0, miss_rat 0.000469
smaller tournament 317 outcome, insn 37217682, accesses 4592, hits 2,    config 4 -way
smaller tournament 318, insn 37344026, accesses_since_last 131073, miss_sat 0, miss_rat 0.000469
smaller tournament 318 outcome, insn 37344067, accesses 74, hits 2,    config 4 -way
smaller tournament 319, insn 37470536, accesses_since_last 131073, miss_sat 0, miss_rat 0.000470
smaller tournament 319 outcome, insn 37470805, accesses 272, hits 2,    config 4 -way
smaller tournament 320, insn 37598219, accesses_since_last 131073, miss_sat 0, miss_rat 0.000469
smaller tournament 320 outcome, insn 37600239, accesses 2072, hits 2,    config 4 -way
smaller tournament 321, insn 37726405, accesses_since_last 131073, miss_sat 0, miss_rat 0.000470
smaller tournament 321 outcome, insn 37728712, accesses 2309, hits 2,    config 4 -way
smaller tournament 322, insn 37855210, accesses_since_last 131073, miss_sat 0, miss_rat 0.000470
smaller tournament 322 outcome, insn 37855926, accesses 722, hits 2,    config 4 -way
smaller tournament 323, insn 37982533, accesses_since_last 131073, miss_sat 0, miss_rat 0.000471
smaller tournament 323 outcome, insn 37990678, accesses 8193, hits 1,    config 3 -way
larger tournament 324, insn 38110714, accesses_since_last 124440,      miss_sat 2, miss_rat 0.000477
larger tournament 324 outcome, insn 38110829, accesses 117, hits 2, config 4 -way
smaller tournament 325, insn 38237474, accesses_since_last 131073, miss_sat 0, miss_rat 0.000477
smaller tournament 325 outcome, insn 38242359, accesses 4946, hits 2,    config 4 -way
smaller tournament 326, insn 38368874, accesses_since_last 131073, miss_sat 0, miss_rat 0.000477
smaller tournament 326 outcome, insn 38369734, accesses 886, hits 2,    config 4 -way
smaller tournament 327, insn 38496478, accesses_since_last 131073, miss_sat 0, miss_rat 0.000477
smaller tournament 327 outcome, insn 38497764, accesses 1305, hits 2,    config 4 -way
smaller tournament 328, insn 38623621, accesses_since_last 131073, miss_sat 0, miss_rat 0.000478
smaller tournament 328 outcome, insn 38624287, accesses 690, hits 2,    config 4 -way
smaller tournament 329, insn 38750942, accesses_since_last 131073, miss_sat 0, miss_rat 0.000479
smaller tournament 329 outcome, insn 38751511, accesses 573, hits 2,    config 4 -way
smaller tournament 330, insn 38878855, accesses_since_last 131073, miss_sat 0, miss_rat 0.000479
smaller tournament 330 outcome, insn 38881413, accesses 2569, hits 2,    config 4 -way
smaller tournament 331, insn 39008098, accesses_since_last 131073, miss_sat 0, miss_rat 0.000480
smaller tournament 331 outcome, insn 39008269, accesses 213, hits 2,    config 4 -way
smaller tournament 332, insn 39134541, accesses_since_last 131073, miss_sat 0, miss_rat 0.000480
smaller tournament 332 outcome, insn 39138924, accesses 4460, hits 2,    config 4 -way
smaller tournament 333, insn 39265531, accesses_since_last 131073, miss_sat 0, miss_rat 0.000480
smaller tournament 333 outcome, insn 39265722, accesses 194, hits 2,    config 4 -way
smaller tournament 334, insn 39391935, accesses_since_last 131073, miss_sat 0, miss_rat 0.000480
smaller tournament 334 outcome, insn 39392544, accesses 639, hits 2,    config 4 -way
smaller tournament 335, insn 39519314, accesses_since_last 131073, miss_sat 0, miss_rat 0.000481
smaller tournament 335 outcome, insn 39519570, accesses 259, hits 2,    config 4 -way
smaller tournament 336, insn 39646660, accesses_since_last 131073, miss_sat 0, miss_rat 0.000481
smaller tournament 336 outcome, insn 39647765, accesses 1163, hits 2,    config 4 -way
smaller tournament 337, insn 39774442, accesses_since_last 131073, miss_sat 0, miss_rat 0.000481
smaller tournament 337 outcome, insn 39779481, accesses 5107, hits 2,    config 4 -way
smaller tournament 338, insn 39905981, accesses_since_last 131073, miss_sat 0, miss_rat 0.000481
smaller tournament 338 outcome, insn 39907540, accesses 1590, hits 2,    config 4 -way
smaller tournament 339, insn 40034378, accesses_since_last 131073, miss_sat 0, miss_rat 0.000481
smaller tournament 339 outcome, insn 40036349, accesses 1988, hits 2,    config 4 -way
smaller tournament 340, insn 40162647, accesses_since_last 131073, miss_sat 0, miss_rat 0.000481
smaller tournament 340 outcome, insn 40166583, accesses 3995, hits 2,    config 4 -way
smaller tournament 341, insn 40292881, accesses_since_last 131073, miss_sat 0, miss_rat 0.000483
smaller tournament 341 outcome, insn 40295059, accesses 2189, hits 2,    config 4 -way
smaller tournament 342, insn 40422452, accesses_since_last 131073, miss_sat 0, miss_rat 0.000483
smaller tournament 342 outcome, insn 40422983, accesses 528, hits 2,    config 4 -way
smaller tournament 343, insn 40550022, accesses_since_last 131073, miss_sat 0, miss_rat 0.000483
smaller tournament 343 outcome, insn 40553756, accesses 3743, hits 2,    config 4 -way
smaller tournament 344, insn 40680154, accesses_since_last 131073, miss_sat 0, miss_rat 0.000483
smaller tournament 344 outcome, insn 40683721, accesses 3576, hits 2,    config 4 -way
smaller tournament 345, insn 40810061, accesses_since_last 131073, miss_sat 0, miss_rat 0.000483
smaller tournament 345 outcome, insn 40811510, accesses 1635, hits 2,    config 4 -way
smaller tournament 346, insn 40938495, accesses_since_last 131073, miss_sat 0, miss_rat 0.000483
smaller tournament 346 outcome, insn 40940860, accesses 2372, hits 2,    config 4 -way
smaller tournament 347, insn 41066721, accesses_since_last 131073, miss_sat 0, miss_rat 0.000484
smaller tournament 347 outcome, insn 41067174, accesses 480, hits 2,    config 4 -way
smaller tournament 348, insn 41194721, accesses_since_last 131073, miss_sat 0, miss_rat 0.000484
smaller tournament 348 outcome, insn 41194776, accesses 57, hits 2,    config 4 -way
smaller tournament 349, insn 41321297, accesses_since_last 131073, miss_sat 0, miss_rat 0.000485
smaller tournament 349 outcome, insn 41326771, accesses 5496, hits 2,    config 4 -way
smaller tournament 350, insn 41453087, accesses_since_last 131073, miss_sat 0, miss_rat 0.000485
smaller tournament 350 outcome, insn 41455035, accesses 1972, hits 2,    config 4 -way
smaller tournament 351, insn 41582028, accesses_since_last 131073, miss_sat 0, miss_rat 0.000485
smaller tournament 351 outcome, insn 41588584, accesses 6596, hits 2,    config 4 -way
smaller tournament 352, insn 41714725, accesses_since_last 131073, miss_sat 0, miss_rat 0.000485
smaller tournament 352 outcome, insn 41718958, accesses 4292, hits 2,    config 4 -way
smaller tournament 353, insn 41845377, accesses_since_last 131073, miss_sat 0, miss_rat 0.000486
smaller tournament 353 outcome, insn 41845474, accesses 98, hits 2,    config 4 -way
smaller tournament 354, insn 41972787, accesses_since_last 131073, miss_sat 0, miss_rat 0.000486
smaller tournament 354 outcome, insn 41973166, accesses 381, hits 2,    config 4 -way
smaller tournament 355, insn 42099424, accesses_since_last 131073, miss_sat 0, miss_rat 0.000487
smaller tournament 355 outcome, insn 42099794, accesses 376, hits 2,    config 4 -way
smaller tournament 356, insn 42226136, accesses_since_last 131073, miss_sat 0, miss_rat 0.000486
smaller tournament 356 outcome, insn 42232500, accesses 6435, hits 2,    config 4 -way
smaller tournament 357, insn 42359123, accesses_since_last 131073, miss_sat 0, miss_rat 0.000486
smaller tournament 357 outcome, insn 42364570, accesses 5475, hits 2,    config 4 -way
smaller tournament 358, insn 42491063, accesses_since_last 131073, miss_sat 0, miss_rat 0.000487
smaller tournament 358 outcome, insn 42494051, accesses 2998, hits 2,    config 4 -way
smaller tournament 359, insn 42620183, accesses_since_last 131073, miss_sat 0, miss_rat 0.000488
smaller tournament 359 outcome, insn 42621837, accesses 1669, hits 2,    config 4 -way
smaller tournament 360, insn 42749004, accesses_since_last 131073, miss_sat 0, miss_rat 0.000488
smaller tournament 360 outcome, insn 42749242, accesses 242, hits 2,    config 4 -way
smaller tournament 361, insn 42876665, accesses_since_last 131073, miss_sat 0, miss_rat 0.000488
smaller tournament 361 outcome, insn 42879638, accesses 3006, hits 2,    config 4 -way
smaller tournament 362, insn 43005965, accesses_since_last 131073, miss_sat 0, miss_rat 0.000487
smaller tournament 362 outcome, insn 43009972, accesses 4056, hits 2,    config 4 -way
smaller tournament 363, insn 43136283, accesses_since_last 131073, miss_sat 0, miss_rat 0.000488
smaller tournament 363 outcome, insn 43136492, accesses 224, hits 2,    config 4 -way
smaller tournament 364, insn 43263363, accesses_since_last 131073, miss_sat 0, miss_rat 0.000488
smaller tournament 364 outcome, insn 43268342, accesses 4998, hits 2,    config 4 -way
smaller tournament 365, insn 43394624, accesses_since_last 131073, miss_sat 0, miss_rat 0.000489
smaller tournament 365 outcome, insn 43396809, accesses 2209, hits 2,    config 4 -way
smaller tournament 366, insn 43524374, accesses_since_last 131073, miss_sat 0, miss_rat 0.000488
smaller tournament 366 outcome, insn 43525367, accesses 1176, hits 2,    config 4 -way
smaller tournament 367, insn 43652339, accesses_since_last 131073, miss_sat 0, miss_rat 0.000489
smaller tournament 367 outcome, insn 43657358, accesses 5083, hits 2,    config 4 -way
smaller tournament 368, insn 43783763, accesses_since_last 131073, miss_sat 0, miss_rat 0.000489
smaller tournament 368 outcome, insn 43786642, accesses 2917, hits 2,    config 4 -way
smaller tournament 369, insn 43913503, accesses_since_last 131073, miss_sat 0, miss_rat 0.000489
smaller tournament 369 outcome, insn 43915300, accesses 1816, hits 2,    config 4 -way
smaller tournament 370, insn 44041156, accesses_since_last 131073, miss_sat 0, miss_rat 0.000489
smaller tournament 370 outcome, insn 44041494, accesses 338, hits 2,    config 4 -way
smaller tournament 371, insn 44168289, accesses_since_last 131073, miss_sat 0, miss_rat 0.000490
smaller tournament 371 outcome, insn 44168856, accesses 597, hits 2,    config 4 -way
smaller tournament 372, insn 44295799, accesses_since_last 131073, miss_sat 0, miss_rat 0.000491
smaller tournament 372 outcome, insn 44300704, accesses 5046, hits 2,    config 4 -way
smaller tournament 373, insn 44427058, accesses_since_last 131073, miss_sat 0, miss_rat 0.000491
smaller tournament 373 outcome, insn 44427186, accesses 158, hits 2,    config 4 -way
smaller tournament 374, insn 44553949, accesses_since_last 131073, miss_sat 0, miss_rat 0.000491
smaller tournament 374 outcome, insn 44554728, accesses 892, hits 2,    config 4 -way
smaller tournament 375, insn 44681374, accesses_since_last 131073, miss_sat 0, miss_rat 0.000491
smaller tournament 375 outcome, insn 44682222, accesses 929, hits 2,    config 4 -way
smaller tournament 376, insn 44809099, accesses_since_last 131073, miss_sat 0, miss_rat 0.000491
smaller tournament 376 outcome, insn 44810391, accesses 1403, hits 2,    config 4 -way
smaller tournament 377, insn 44937235, accesses_since_last 131073, miss_sat 0, miss_rat 0.000492
smaller tournament 377 outcome, insn 44941555, accesses 4339, hits 2,    config 4 -way
smaller tournament 378, insn 45068295, accesses_since_last 131073, miss_sat 0, miss_rat 0.000492
smaller tournament 378 outcome, insn 45076427, accesses 8193, hits 0,    config 3 -way
larger tournament 379, insn 45096900, accesses_since_last 21276,      miss_sat 2, miss_rat 0.000493
larger tournament 379 outcome, insn 45097143, accesses 325, hits 2, config 4 -way
smaller tournament 380, insn 45224564, accesses_since_last 131073, miss_sat 0, miss_rat 0.000493
smaller tournament 380 outcome, insn 45224775, accesses 222, hits 2,    config 4 -way
smaller tournament 381, insn 45351502, accesses_since_last 131073, miss_sat 0, miss_rat 0.000493
smaller tournament 381 outcome, insn 45359633, accesses 8193, hits 0,    config 3 -way
larger tournament 382, insn 45422761, accesses_since_last 65165,      miss_sat 2, miss_rat 0.000495
larger tournament 382 outcome, insn 45423448, accesses 722, hits 2, config 4 -way
smaller tournament 383, insn 45548994, accesses_since_last 131073, miss_sat 0, miss_rat 0.000496
smaller tournament 383 outcome, insn 45551383, accesses 2405, hits 2,    config 4 -way
smaller tournament 384, insn 45678801, accesses_since_last 131073, miss_sat 0, miss_rat 0.000497
smaller tournament 384 outcome, insn 45678945, accesses 142, hits 2,    config 4 -way
smaller tournament 385, insn 45805449, accesses_since_last 131073, miss_sat 0, miss_rat 0.000497
smaller tournament 385 outcome, insn 45806817, accesses 1389, hits 2,    config 4 -way
smaller tournament 386, insn 45933757, accesses_since_last 131073, miss_sat 0, miss_rat 0.000498
smaller tournament 386 outcome, insn 45934255, accesses 510, hits 2,    config 4 -way
smaller tournament 387, insn 46061413, accesses_since_last 131073, miss_sat 0, miss_rat 0.000497
smaller tournament 387 outcome, insn 46065796, accesses 4402, hits 2,    config 4 -way
smaller tournament 388, insn 46192342, accesses_since_last 131073, miss_sat 0, miss_rat 0.000497
smaller tournament 388 outcome, insn 46193461, accesses 1155, hits 2,    config 4 -way
smaller tournament 389, insn 46319081, accesses_since_last 131073, miss_sat 0, miss_rat 0.000497
smaller tournament 389 outcome, insn 46319230, accesses 152, hits 2,    config 4 -way
smaller tournament 390, insn 46446935, accesses_since_last 131073, miss_sat 0, miss_rat 0.000498
smaller tournament 390 outcome, insn 46449135, accesses 2372, hits 2,    config 4 -way
smaller tournament 391, insn 46575296, accesses_since_last 131073, miss_sat 0, miss_rat 0.000499
smaller tournament 391 outcome, insn 46575810, accesses 532, hits 2,    config 4 -way
smaller tournament 392, insn 46703112, accesses_since_last 131073, miss_sat 0, miss_rat 0.000499
smaller tournament 392 outcome, insn 46707014, accesses 3957, hits 2,    config 4 -way
smaller tournament 393, insn 46833937, accesses_since_last 131073, miss_sat 0, miss_rat 0.000498
smaller tournament 393 outcome, insn 46834099, accesses 195, hits 2,    config 4 -way
smaller tournament 394, insn 46960469, accesses_since_last 131073, miss_sat 0, miss_rat 0.000498
smaller tournament 394 outcome, insn 46963194, accesses 2760, hits 2,    config 4 -way
smaller tournament 395, insn 47089126, accesses_since_last 131073, miss_sat 0, miss_rat 0.000499
smaller tournament 395 outcome, insn 47091894, accesses 2972, hits 2,    config 4 -way
smaller tournament 396, insn 47219514, accesses_since_last 131073, miss_sat 0, miss_rat 0.000499
smaller tournament 396 outcome, insn 47219535, accesses 26, hits 2,    config 4 -way
smaller tournament 397, insn 47345474, accesses_since_last 131073, miss_sat 0, miss_rat 0.000500
smaller tournament 397 outcome, insn 47346060, accesses 586, hits 2,    config 4 -way
smaller tournament 398, insn 47472916, accesses_since_last 131073, miss_sat 0, miss_rat 0.000500
smaller tournament 398 outcome, insn 47472935, accesses 38, hits 2,    config 4 -way
smaller tournament 399, insn 47599994, accesses_since_last 131073, miss_sat 0, miss_rat 0.000500
smaller tournament 399 outcome, insn 47608140, accesses 8193, hits 1,    config 3 -way
smaller tournament 400, insn 47734379, accesses_since_last 131073, miss_sat 0, miss_rat 0.000505
smaller tournament 400 outcome, insn 47734657, accesses 278, hits 2,    config 3 -way
larger tournament 401, insn 47763334, accesses_since_last 29833,      miss_sat 2, miss_rat 0.000507
larger tournament 401 outcome, insn 47763339, accesses 7, hits 2, config 4 -way
smaller tournament 402, insn 47889622, accesses_since_last 131073, miss_sat 0, miss_rat 0.000507
smaller tournament 402 outcome, insn 47893404, accesses 3832, hits 2,    config 4 -way
smaller tournament 403, insn 48020122, accesses_since_last 131073, miss_sat 0, miss_rat 0.000508
smaller tournament 403 outcome, insn 48020492, accesses 387, hits 2,    config 4 -way
smaller tournament 404, insn 48147169, accesses_since_last 131073, miss_sat 0, miss_rat 0.000508
smaller tournament 404 outcome, insn 48147895, accesses 726, hits 2,    config 4 -way
smaller tournament 405, insn 48274922, accesses_since_last 131073, miss_sat 0, miss_rat 0.000508
smaller tournament 405 outcome, insn 48276429, accesses 1506, hits 2,    config 4 -way
smaller tournament 406, insn 48403088, accesses_since_last 131073, miss_sat 0, miss_rat 0.000508
smaller tournament 406 outcome, insn 48403133, accesses 61, hits 2,    config 4 -way
smaller tournament 407, insn 48529870, accesses_since_last 131073, miss_sat 0, miss_rat 0.000507
smaller tournament 407 outcome, insn 48529909, accesses 40, hits 2,    config 4 -way
smaller tournament 408, insn 48656134, accesses_since_last 131073, miss_sat 0, miss_rat 0.000508
smaller tournament 408 outcome, insn 48657167, accesses 1048, hits 2,    config 4 -way
smaller tournament 409, insn 48784307, accesses_since_last 131073, miss_sat 0, miss_rat 0.000508
smaller tournament 409 outcome, insn 48785562, accesses 1266, hits 2,    config 4 -way
smaller tournament 410, insn 48911889, accesses_since_last 131073, miss_sat 0, miss_rat 0.000509
smaller tournament 410 outcome, insn 48914850, accesses 2975, hits 2,    config 4 -way
smaller tournament 411, insn 49042136, accesses_since_last 131073, miss_sat 0, miss_rat 0.000509
smaller tournament 411 outcome, insn 49043532, accesses 1413, hits 2,    config 4 -way
smaller tournament 412, insn 49170296, accesses_since_last 131073, miss_sat 0, miss_rat 0.000508
smaller tournament 412 outcome, insn 49173734, accesses 3456, hits 2,    config 4 -way
smaller tournament 413, insn 49300730, accesses_since_last 131073, miss_sat 0, miss_rat 0.000508
smaller tournament 413 outcome, insn 49301742, accesses 1071, hits 2,    config 4 -way
smaller tournament 414, insn 49427622, accesses_since_last 131073, miss_sat 0, miss_rat 0.000509
smaller tournament 414 outcome, insn 49428719, accesses 1114, hits 2,    config 4 -way
smaller tournament 415, insn 49555821, accesses_since_last 131073, miss_sat 0, miss_rat 0.000509
smaller tournament 415 outcome, insn 49556220, accesses 398, hits 2,    config 4 -way
smaller tournament 416, insn 49682314, accesses_since_last 131073, miss_sat 0, miss_rat 0.000510
smaller tournament 416 outcome, insn 49683791, accesses 1515, hits 2,    config 4 -way
smaller tournament 417, insn 49810655, accesses_since_last 131073, miss_sat 0, miss_rat 0.000510
smaller tournament 417 outcome, insn 49810789, accesses 131, hits 2,    config 4 -way
smaller tournament 418, insn 49937733, accesses_since_last 131073, miss_sat 0, miss_rat 0.000509
smaller tournament 418 outcome, insn 49939170, accesses 1492, hits 2,    config 4 -way

sim: ** simulation statistics **
sim_num_insn               50000001 # total number of instructions committed
sim_num_refs               22323253 # total number of loads and stores committed
sim_num_loads              13966693 # total number of loads committed
sim_num_stores         8356560.0000 # total number of stores committed
sim_num_branches            7893820 # total number of branches committed
sim_elapsed_time                 97 # total simulation time in seconds
sim_inst_rate           515463.9278 # simulation speed (in insts/sec)
sim_total_insn             51478298 # total number of instructions executed
sim_total_refs             22923486 # total number of loads and stores executed
sim_total_loads            14377915 # total number of loads executed
sim_total_stores       8545571.0000 # total number of stores executed
sim_total_branches          8136702 # total number of branches executed
sim_cycle                  24539704 # total simulation time in cycles
sim_IPC                      2.0375 # instructions per cycle
sim_CPI                      0.4908 # cycles per instruction
sim_exec_BW                  2.0978 # total instructions (mis-spec + committed) per cycle
sim_IPB                      6.3341 # instruction per branch
Cache_Config_Ratio     <error: variable is undefined> # Cache_Run_Ratio
IFQ_count                  86120965 # cumulative IFQ occupancy
IFQ_fcount                 19986573 # cumulative IFQ full count
ifq_occupancy                3.5095 # avg IFQ occupancy (insn's)
ifq_rate                     2.0978 # avg IFQ dispatch rate (insn/cycle)
ifq_latency                  1.6730 # avg IFQ occupant latency (cycle's)
ifq_full                     0.8145 # fraction of time (cycle's) IFQ was full
RUU_count                 320339680 # cumulative RUU occupancy
RUU_fcount                  9982475 # cumulative RUU full count
ruu_occupancy               13.0539 # avg RUU occupancy (insn's)
ruu_rate                     2.0978 # avg RUU dispatch rate (insn/cycle)
ruu_latency                  6.2228 # avg RUU occupant latency (cycle's)
ruu_full                     0.4068 # fraction of time (cycle's) RUU was full
LSQ_count                 141520421 # cumulative LSQ occupancy
LSQ_fcount                  7422846 # cumulative LSQ full count
lsq_occupancy                5.7670 # avg LSQ occupancy (insn's)
lsq_rate                     2.0978 # avg LSQ dispatch rate (insn/cycle)
lsq_latency                  2.7491 # avg LSQ occupant latency (cycle's)
lsq_full                     0.3025 # fraction of time (cycle's) LSQ was full
sim_slip                  527622361 # total number of slip cycles
avg_sim_slip                10.5524 # the average slip between issue and retirement
bpred_bimod.lookups         8235976 # total number of bpred lookups
bpred_bimod.updates         7893818 # total number of updates
bpred_bimod.addr_hits       7615817 # total number of address-predicted hits
bpred_bimod.dir_hits        7659623 # total number of direction-predicted hits (includes addr-hits)
bpred_bimod.misses           234195 # total number of misses
bpred_bimod.jr_hits          946175 # total number of address-predicted hits for JR's
bpred_bimod.jr_seen          965713 # total number of JR's seen
bpred_bimod.jr_non_ras_hits.PP        12045 # total number of address-predicted hits for non-RAS JR's
bpred_bimod.jr_non_ras_seen.PP        14457 # total number of non-RAS JR's seen
bpred_bimod.bpred_addr_rate    0.9648 # branch address-prediction rate (i.e., addr-hits/updates)
bpred_bimod.bpred_dir_rate    0.9703 # branch direction-prediction rate (i.e., all-hits/updates)
bpred_bimod.bpred_jr_rate    0.9798 # JR address-prediction rate (i.e., JR addr-hits/JRs seen)
bpred_bimod.bpred_jr_non_ras_rate.PP    0.8332 # non-RAS JR addr-pred rate (ie, non-RAS JR hits/JRs seen)
bpred_bimod.retstack_pushes       993146 # total number of address pushed onto ret-addr stack
bpred_bimod.retstack_pops       989864 # total number of address popped off of ret-addr stack
bpred_bimod.used_ras.PP       951256 # total number of RAS predictions used
bpred_bimod.ras_hits.PP       934130 # total number of RAS hits
bpred_bimod.ras_rate.PP    0.9820 # RAS prediction rate (i.e., RAS hits/used RAS)
il1.reconfigurations             82 # total number of reconfigurations
il1.tournaments                 418 # total number of tournaments
il1. Power-Saving            0.0000 # Power Saving 
il1. Smaller Cache Cnt       5383120 # SCC 
il1. Largerer Cache Cnt      46433272 # LCC 
il1.accesses               52226651 # total number of accesses
il1.hits                   52200050 # total number of hits
il1.misses                    26601 # total number of misses
il1.mnm_misses                    0 # total number MNM of misses
il1.replacements              23013 # total number of replacements
il1.writebacks                    0 # total number of writebacks
il1.invalidations                 0 # total number of invalidations
il1.miss_rate                0.0005 # miss rate (i.e., misses/ref)
il1.repl_rate                0.0004 # replacement rate (i.e., repls/ref)
il1.wb_rate                  0.0000 # writeback rate (i.e., wrbks/ref)
il1.inv_rate                 0.0000 # invalidation rate (i.e., invs/ref)
dl1.accesses               22195541 # total number of accesses
dl1.hits                   22031059 # total number of hits
dl1.misses                   164482 # total number of misses
dl1.mnm_misses                    0 # total number MNM of misses
dl1.replacements             162434 # total number of replacements
dl1.writebacks               113732 # total number of writebacks
dl1.invalidations                 0 # total number of invalidations
dl1.miss_rate                0.0074 # miss rate (i.e., misses/ref)
dl1.repl_rate                0.0073 # replacement rate (i.e., repls/ref)
dl1.wb_rate                  0.0051 # writeback rate (i.e., wrbks/ref)
dl1.inv_rate                 0.0000 # invalidation rate (i.e., invs/ref)
dl2.accesses                 304815 # total number of accesses
dl2.hits                     245052 # total number of hits
dl2.misses                    59763 # total number of misses
dl2.mnm_misses                  603 # total number MNM of misses
dl2.replacements              51571 # total number of replacements
dl2.writebacks                42607 # total number of writebacks
dl2.invalidations                 0 # total number of invalidations
dl2.miss_rate                0.1961 # miss rate (i.e., misses/ref)
dl2.repl_rate                0.1692 # replacement rate (i.e., repls/ref)
dl2.wb_rate                  0.1398 # writeback rate (i.e., wrbks/ref)
dl2.inv_rate                 0.0000 # invalidation rate (i.e., invs/ref)
dl3.accesses                 102370 # total number of accesses
dl3.hits                      48460 # total number of hits
dl3.misses                    53910 # total number of misses
dl3.mnm_misses                    2 # total number MNM of misses
dl3.replacements                157 # total number of replacements
dl3.writebacks                   68 # total number of writebacks
dl3.invalidations                 0 # total number of invalidations
dl3.miss_rate                0.5266 # miss rate (i.e., misses/ref)
dl3.repl_rate                0.0015 # replacement rate (i.e., repls/ref)
dl3.wb_rate                  0.0007 # writeback rate (i.e., wrbks/ref)
dl3.inv_rate                 0.0000 # invalidation rate (i.e., invs/ref)
itlb.accesses              52226651 # total number of accesses
itlb.hits                  52203587 # total number of hits
itlb.misses                   23064 # total number of misses
itlb.mnm_misses                   0 # total number MNM of misses
itlb.replacements             23000 # total number of replacements
itlb.writebacks                   0 # total number of writebacks
itlb.invalidations                0 # total number of invalidations
itlb.miss_rate               0.0004 # miss rate (i.e., misses/ref)
itlb.repl_rate               0.0004 # replacement rate (i.e., repls/ref)
itlb.wb_rate                 0.0000 # writeback rate (i.e., wrbks/ref)
itlb.inv_rate                0.0000 # invalidation rate (i.e., invs/ref)
dtlb.accesses              22421964 # total number of accesses
dtlb.hits                  22374666 # total number of hits
dtlb.misses                   47298 # total number of misses
dtlb.mnm_misses                   0 # total number MNM of misses
dtlb.replacements             47170 # total number of replacements
dtlb.writebacks                   0 # total number of writebacks
dtlb.invalidations                0 # total number of invalidations
dtlb.miss_rate               0.0021 # miss rate (i.e., misses/ref)
dtlb.repl_rate               0.0021 # replacement rate (i.e., repls/ref)
dtlb.wb_rate                 0.0000 # writeback rate (i.e., wrbks/ref)
dtlb.inv_rate                0.0000 # invalidation rate (i.e., invs/ref)
sim_invalid_addrs                 0 # total non-speculative bogus addresses seen (debug var)
ld_text_base           0x0120000000 # program text (code) segment base
ld_text_size                 819200 # program text (code) size in bytes
ld_data_base           0x0140000000 # program initialized data segment base
ld_data_size                 118976 # program init'ed `.data' and uninit'ed `.bss' size in bytes
ld_stack_base          0x011ff9b000 # program stack segment base (highest address in stack)
ld_stack_size                 16384 # program initial stack size
ld_prog_entry          0x0120026a50 # program entry point (initial PC)
ld_environ_base        0x011ff97000 # program environment base address address
ld_target_big_endian              0 # target executable endian-ness, non-zero if big endian
mem.page_count                 1031 # total number of pages allocated
mem.page_mem                  8248k # total size of memory pages allocated
mem.ptab_misses               53098 # total first level page table misses
mem.ptab_accesses         566739306 # total page table accesses
mem.ptab_miss_rate           0.0001 # first level page table miss rate

