sim-outorder: SimpleScalar/Alpha Tool Set version 3.0 of August, 2003.
Copyright (c) 1994-2003 by Todd M. Austin, Ph.D. and SimpleScalar, LLC.
All Rights Reserved. This version of SimpleScalar is licensed for academic
non-commercial use.  No portion of this work may be used by any commercial
entity, or for any commercial purpose, without the prior written permission
of SimpleScalar, LLC (info@simplescalar.com).

warning: section `.comment' ignored...
sim: command line: /home/jai/Desktop/simplescalar/simplesim-RMNM-Flex/sim-outorder -cache:il1 il1:1024:16:8:t:1:8192:131072:1 -cache:dl1 dl1:512:16:1:l -cache:dl2 dl2:1024:32:2:l -cache:dl3 dl3:4096:32:4:l -max:inst 50000000 -fastfwd 20000000 -redir:sim cache_RMNM-Flex_8.txt ../../spec2000binaries/crafty00.peak.ev6 

sim: simulation started @ Sun Dec  6 06:06:35 2015, options follow:

sim-outorder: This simulator implements a very detailed out-of-order issue
superscalar processor with a two-level memory system and speculative
execution support.  This simulator is a performance simulator, tracking the
latency of all pipeline operations.

# -config                     # load configuration from a file
# -dumpconfig                 # dump configuration to a file
# -h                    false # print help message    
# -v                    false # verbose operation     
# -d                    false # enable debug message  
# -i                    false # start in Dlite debugger
-seed                       1 # random number generator seed (0 for timer seed)
# -q                    false # initialize and terminate immediately
# -chkpt               <null> # restore EIO trace execution from <fname>
# -redir:sim     cache_RMNM-Flex_8.txt # redirect simulator output to file (non-interactive only)
# -redir:prog          <null> # redirect simulated program output to file
-nice                       0 # simulator scheduling priority
-max:inst            50000000 # maximum number of inst's to execute
-fastfwd             20000000 # number of insts skipped before timing starts
# -ptrace              <null> # generate pipetrace, i.e., <fname|stdout|stderr> <range>
-fetch:ifqsize              4 # instruction fetch queue size (in insts)
-fetch:mplat                3 # extra branch mis-prediction latency
-fetch:speed                1 # speed of front-end of machine relative to execution core
-bpred                  bimod # branch predictor type {nottaken|taken|perfect|bimod|2lev|comb}
-bpred:bimod     2048 # bimodal predictor config (<table size>)
-bpred:2lev      1 1024 8 0 # 2-level predictor config (<l1size> <l2size> <hist_size> <xor>)
-bpred:comb      1024 # combining predictor config (<meta_table_size>)
-bpred:ras                  8 # return address stack size (0 for no return stack)
-bpred:btb       512 4 # BTB config (<num_sets> <associativity>)
# -bpred:spec_update       <null> # speculative predictors update in {ID|WB} (default non-spec)
-decode:width               4 # instruction decode B/W (insts/cycle)
-issue:width                4 # instruction issue B/W (insts/cycle)
-issue:inorder          false # run pipeline with in-order issue
-issue:wrongpath         true # issue instructions down wrong execution paths
-commit:width               4 # instruction commit B/W (insts/cycle)
-ruu:size                  16 # register update unit (RUU) size
-lsq:size                   8 # load/store queue (LSQ) size
-cache:dl1       dl1:512:16:1:l # l1 data cache config, i.e., {<config>|none}
-cache:dl1lat               1 # l1 data cache hit latency (in cycles)
-cache:dl2       dl2:1024:32:2:l # l2 data cache config, i.e., {<config>|none}
-cache:dl2lat               6 # l2 data cache hit latency (in cycles)
-cache:dl3       dl3:4096:32:4:l # l3 data cache config, i.e., {<config>|none}
-cache:dl3lat              10 # l3 data cache hit latency (in cycles)
-cache:il1       il1:1024:16:8:t:1:8192:131072:1 # l1 inst cache config, i.e., {<config>|dl1|dl2|none}
-cache:il1lat               1 # l1 instruction cache hit latency (in cycles)
-cache:il2                dl2 # l2 instruction cache config, i.e., {<config>|dl2|none}
-cache:il2lat               6 # l2 instruction cache hit latency (in cycles)
-cache:il3                dl3 # l3 instruction cache config, i.e., {<config>|dl3|none}
-cache:il3lat              10 # l3 instruction cache hit latency (in cycles)
-cache:flush            false # flush caches on system calls
-cache:icompress        false # convert 64-bit inst addresses to 32-bit inst equivalents
-mem:lat         18 2 # memory access latency (<first_chunk> <inter_chunk>)
-mem:width                  8 # memory access bus width (in bytes)
-tlb:itlb        itlb:16:4096:4:l # instruction TLB config, i.e., {<config>|none}
-tlb:dtlb        dtlb:32:4096:4:l # data TLB config, i.e., {<config>|none}
-tlb:lat                   30 # inst/data TLB miss latency (in cycles)
-res:ialu                   4 # total number of integer ALU's available
-res:imult                  1 # total number of integer multiplier/dividers available
-res:memport                2 # total number of memory system ports available (to CPU)
-res:fpalu                  4 # total number of floating point ALU's available
-res:fpmult                 1 # total number of floating point multiplier/dividers available
# -pcstat              <null> # profile stat(s) against text addr's (mult uses ok)
-bugcompat              false # operate in backward-compatible bugs mode (for testing only)

  Pipetrace range arguments are formatted as follows:

    {{@|#}<start>}:{{@|#|+}<end>}

  Both ends of the range are optional, if neither are specified, the entire
  execution is traced.  Ranges that start with a `@' designate an address
  range to be traced, those that start with an `#' designate a cycle count
  range.  All other range values represent an instruction count range.  The
  second argument, if specified with a `+', indicates a value relative
  to the first argument, e.g., 1000:+100 == 1000:1100.  Program symbols may
  be used in all contexts.

    Examples:   -ptrace FOO.trc #0:#1000
                -ptrace BAR.trc @2000:
                -ptrace BLAH.trc :1500
                -ptrace UXXE.trc :
                -ptrace FOOBAR.trc @main:+278

  Branch predictor configuration examples for 2-level predictor:
    Configurations:   N, M, W, X
      N   # entries in first level (# of shift register(s))
      W   width of shift register(s)
      M   # entries in 2nd level (# of counters, or other FSM)
      X   (yes-1/no-0) xor history and address for 2nd level index
    Sample predictors:
      GAg     : 1, W, 2^W, 0
      GAp     : 1, W, M (M > 2^W), 0
      PAg     : N, W, 2^W, 0
      PAp     : N, W, M (M == 2^(N+W)), 0
      gshare  : 1, W, 2^W, 1
  Predictor `comb' combines a bimodal and a 2-level predictor.

  The cache config parameter <config> has the following format:

    <name>:<nsets>:<bsize>:<assoc>:<repl>

    <name>   - name of the cache being defined
    <nsets>  - number of sets in the cache
    <bsize>  - block size of the cache
    <assoc>  - associativity of the cache
    <repl>   - block replacement strategy, 'l'-LRU, 'f'-FIFO, 'r'-random

    Examples:   -cache:dl1 dl1:4096:32:1:l
                -dtlb dtlb:128:4096:32:r

  Cache levels can be unified by pointing a level of the instruction cache
  hierarchy at the data cache hiearchy using the "dl1" and "dl2" cache
  configuration arguments.  Most sensible combinations are supported, e.g.,

    A unified l2 cache (il2 is pointed at dl2):
      -cache:il1 il1:128:64:1:l -cache:il2 dl2
      -cache:dl1 dl1:256:32:1:l -cache:dl2 ul2:1024:64:2:l

    Or, a fully unified cache hierarchy (il1 pointed at dl1):
      -cache:il1 dl1
      -cache:dl1 ul1:256:32:1:l -cache:dl2 ul2:1024:64:2:l



sim: ** fast forwarding 20000000 insts **
sim: ** starting performance simulation **
smaller tournament 1, insn 110704, accesses_since_last 131073, miss_sat 0, miss_rat 0.015465
smaller tournament 1 outcome, insn 117698, accesses 8193, hits 0,    config 7 -way
larger tournament 2, insn 121360, accesses_since_last 4878,      miss_sat 2, miss_rat 0.014187
larger tournament 2 outcome, insn 128463, accesses 8193, hits 0, config 7 -way
larger tournament 3, insn 177232, accesses_since_last 51157,      miss_sat 2, miss_rat 0.010167
larger tournament 3 outcome, insn 184222, accesses 8193, hits 0, config 7 -way
larger tournament 4, insn 220146, accesses_since_last 40984,      miss_sat 2, miss_rat 0.008323
larger tournament 4 outcome, insn 227313, accesses 8193, hits 0, config 7 -way
larger tournament 5, insn 245405, accesses_since_last 21671,      miss_sat 2, miss_rat 0.007567
larger tournament 5 outcome, insn 252372, accesses 8193, hits 0, config 7 -way
smaller tournament 6, insn 369667, accesses_since_last 131073, miss_sat 0, miss_rat 0.005156
smaller tournament 6 outcome, insn 376882, accesses 8193, hits 0,    config 6 -way
larger tournament 7, insn 382385, accesses_since_last 5922,      miss_sat 2, miss_rat 0.005008
larger tournament 7 outcome, insn 389576, accesses 8193, hits 0, config 6 -way
larger tournament 8, insn 444336, accesses_since_last 59681,      miss_sat 2, miss_rat 0.004361
larger tournament 8 outcome, insn 451346, accesses 8193, hits 0, config 6 -way
larger tournament 9, insn 469308, accesses_since_last 22077,      miss_sat 2, miss_rat 0.004185
larger tournament 9 outcome, insn 476153, accesses 8193, hits 0, config 6 -way
larger tournament 10, insn 503405, accesses_since_last 32549,      miss_sat 2, miss_rat 0.004074
larger tournament 10 outcome, insn 510033, accesses 8193, hits 0, config 6 -way
smaller tournament 11, insn 624199, accesses_since_last 131073, miss_sat 0, miss_rat 0.003364
smaller tournament 11 outcome, insn 631388, accesses 8193, hits 0,    config 5 -way
smaller tournament 12, insn 745783, accesses_since_last 131073, miss_sat 0, miss_rat 0.002816
smaller tournament 12 outcome, insn 752943, accesses 8193, hits 0,    config 4 -way
smaller tournament 13, insn 866824, accesses_since_last 131073, miss_sat 0, miss_rat 0.002426
smaller tournament 13 outcome, insn 868398, accesses 1871, hits 2,    config 4 -way
smaller tournament 14, insn 980221, accesses_since_last 131073, miss_sat 0, miss_rat 0.002146
smaller tournament 14 outcome, insn 987867, accesses 8174, hits 2,    config 4 -way
larger tournament 15, insn 1028729, accesses_since_last 47207,      miss_sat 2, miss_rat 0.002063
larger tournament 15 outcome, insn 1035751, accesses 8193, hits 0, config 4 -way
smaller tournament 16, insn 1150547, accesses_since_last 131073, miss_sat 0, miss_rat 0.001845
smaller tournament 16 outcome, insn 1157363, accesses 7540, hits 2,    config 4 -way
smaller tournament 17, insn 1274577, accesses_since_last 131073, miss_sat 0, miss_rat 0.001673
smaller tournament 17 outcome, insn 1281774, accesses 8193, hits 0,    config 3 -way
larger tournament 18, insn 1291309, accesses_since_last 10812,      miss_sat 2, miss_rat 0.001654
larger tournament 18 outcome, insn 1292414, accesses 1426, hits 2, config 4 -way
larger tournament 19, insn 1298400, accesses_since_last 6974,      miss_sat 2, miss_rat 0.001651
larger tournament 19 outcome, insn 1305360, accesses 8193, hits 1, config 4 -way
larger tournament 20, insn 1313776, accesses_since_last 10380,      miss_sat 2, miss_rat 0.001647
larger tournament 20 outcome, insn 1321015, accesses 8193, hits 0, config 4 -way
larger tournament 21, insn 1327713, accesses_since_last 8426,      miss_sat 2, miss_rat 0.001638
larger tournament 21 outcome, insn 1334256, accesses 8193, hits 1, config 4 -way
smaller tournament 22, insn 1448261, accesses_since_last 131073, miss_sat 0, miss_rat 0.001524
smaller tournament 22 outcome, insn 1454830, accesses 7841, hits 2,    config 4 -way
smaller tournament 23, insn 1570424, accesses_since_last 131073, miss_sat 0, miss_rat 0.001429
smaller tournament 23 outcome, insn 1578014, accesses 8193, hits 0,    config 3 -way
larger tournament 24, insn 1660803, accesses_since_last 92756,      miss_sat 2, miss_rat 0.001382
larger tournament 24 outcome, insn 1660808, accesses 7, hits 2, config 4 -way
larger tournament 25, insn 1758381, accesses_since_last 108659,      miss_sat 2, miss_rat 0.001320
larger tournament 25 outcome, insn 1765663, accesses 8193, hits 1, config 4 -way
smaller tournament 26, insn 1877022, accesses_since_last 131073, miss_sat 0, miss_rat 0.001249
smaller tournament 26 outcome, insn 1878746, accesses 2031, hits 2,    config 4 -way
larger tournament 27, insn 1901456, accesses_since_last 26600,      miss_sat 2, miss_rat 0.001236
larger tournament 27 outcome, insn 1908444, accesses 8193, hits 0, config 4 -way
larger tournament 28, insn 1927465, accesses_since_last 22758,      miss_sat 2, miss_rat 0.001222
larger tournament 28 outcome, insn 1934415, accesses 8193, hits 1, config 4 -way
smaller tournament 29, insn 2049872, accesses_since_last 131073, miss_sat 0, miss_rat 0.001151
smaller tournament 29 outcome, insn 2055213, accesses 6181, hits 2,    config 4 -way
larger tournament 30, insn 2144816, accesses_since_last 104556,      miss_sat 2, miss_rat 0.001105
larger tournament 30 outcome, insn 2149563, accesses 5908, hits 2, config 5 -way
smaller tournament 31, insn 2266081, accesses_since_last 131073, miss_sat 0, miss_rat 0.001055
smaller tournament 31 outcome, insn 2273400, accesses 8193, hits 0,    config 4 -way
smaller tournament 32, insn 2390760, accesses_since_last 131073, miss_sat 0, miss_rat 0.001002
smaller tournament 32 outcome, insn 2397663, accesses 8193, hits 0,    config 3 -way
larger tournament 33, insn 2489141, accesses_since_last 103839,      miss_sat 2, miss_rat 0.001015
larger tournament 33 outcome, insn 2489298, accesses 191, hits 2, config 4 -way
smaller tournament 34, insn 2606019, accesses_since_last 131073, miss_sat 0, miss_rat 0.000974
smaller tournament 34 outcome, insn 2606669, accesses 784, hits 2,    config 4 -way
smaller tournament 35, insn 2723446, accesses_since_last 131073, miss_sat 0, miss_rat 0.000935
smaller tournament 35 outcome, insn 2730925, accesses 8193, hits 0,    config 3 -way
smaller tournament 36, insn 2846013, accesses_since_last 131073, miss_sat 0, miss_rat 0.000911
smaller tournament 36 outcome, insn 2853802, accesses 8193, hits 0,    config 2 -way
larger tournament 37, insn 2868473, accesses_since_last 16025,      miss_sat 2, miss_rat 0.000925
larger tournament 37 outcome, insn 2868499, accesses 32, hits 2, config 3 -way
smaller tournament 38, insn 2984204, accesses_since_last 131073, miss_sat 0, miss_rat 0.000917
smaller tournament 38 outcome, insn 2984337, accesses 143, hits 2,    config 3 -way
smaller tournament 39, insn 3102201, accesses_since_last 131073, miss_sat 0, miss_rat 0.000897
smaller tournament 39 outcome, insn 3102347, accesses 173, hits 2,    config 3 -way
larger tournament 40, insn 3135525, accesses_since_last 37874,      miss_sat 2, miss_rat 0.000911
larger tournament 40 outcome, insn 3135531, accesses 8, hits 2, config 4 -way
smaller tournament 41, insn 3247692, accesses_since_last 131073, miss_sat 0, miss_rat 0.000882
smaller tournament 41 outcome, insn 3252578, accesses 5684, hits 2,    config 4 -way
larger tournament 42, insn 3358541, accesses_since_last 120404,      miss_sat 2, miss_rat 0.000856
larger tournament 42 outcome, insn 3363167, accesses 5437, hits 2, config 5 -way
smaller tournament 43, insn 3477639, accesses_since_last 131073, miss_sat 0, miss_rat 0.000828
smaller tournament 43 outcome, insn 3484371, accesses 8193, hits 0,    config 4 -way
smaller tournament 44, insn 3598543, accesses_since_last 131073, miss_sat 0, miss_rat 0.000803
smaller tournament 44 outcome, insn 3599224, accesses 776, hits 2,    config 4 -way
smaller tournament 45, insn 3714087, accesses_since_last 131073, miss_sat 0, miss_rat 0.000779
smaller tournament 45 outcome, insn 3714109, accesses 22, hits 2,    config 4 -way
larger tournament 46, insn 3729517, accesses_since_last 18299,      miss_sat 2, miss_rat 0.000780
larger tournament 46 outcome, insn 3735755, accesses 8193, hits 1, config 4 -way
smaller tournament 47, insn 3852102, accesses_since_last 131073, miss_sat 0, miss_rat 0.000767
smaller tournament 47 outcome, insn 3859398, accesses 8193, hits 1,    config 3 -way
larger tournament 48, insn 3879293, accesses_since_last 23802,      miss_sat 2, miss_rat 0.000788
larger tournament 48 outcome, insn 3879309, accesses 18, hits 2, config 4 -way
smaller tournament 49, insn 3996773, accesses_since_last 131073, miss_sat 0, miss_rat 0.000770
smaller tournament 49 outcome, insn 3997570, accesses 984, hits 2,    config 4 -way
smaller tournament 50, insn 4112623, accesses_since_last 131073, miss_sat 0, miss_rat 0.000750
smaller tournament 50 outcome, insn 4120040, accesses 8193, hits 0,    config 3 -way
larger tournament 51, insn 4180680, accesses_since_last 67658,      miss_sat 2, miss_rat 0.000751
larger tournament 51 outcome, insn 4180692, accesses 15, hits 2, config 4 -way
smaller tournament 52, insn 4293835, accesses_since_last 131073, miss_sat 0, miss_rat 0.000735
smaller tournament 52 outcome, insn 4295127, accesses 1457, hits 2,    config 4 -way
smaller tournament 53, insn 4408284, accesses_since_last 131073, miss_sat 0, miss_rat 0.000718
smaller tournament 53 outcome, insn 4415288, accesses 8193, hits 1,    config 3 -way
larger tournament 54, insn 4497634, accesses_since_last 94819,      miss_sat 2, miss_rat 0.000713
larger tournament 54 outcome, insn 4497650, accesses 20, hits 2, config 4 -way
larger tournament 55, insn 4523513, accesses_since_last 28838,      miss_sat 2, miss_rat 0.000711
larger tournament 55 outcome, insn 4524702, accesses 1310, hits 2, config 5 -way
smaller tournament 56, insn 4640542, accesses_since_last 131073, miss_sat 0, miss_rat 0.000694
smaller tournament 56 outcome, insn 4648061, accesses 8193, hits 0,    config 4 -way
larger tournament 57, insn 4670492, accesses_since_last 26874,      miss_sat 2, miss_rat 0.000690
larger tournament 57 outcome, insn 4677536, accesses 8193, hits 0, config 4 -way
smaller tournament 58, insn 4789199, accesses_since_last 131073, miss_sat 0, miss_rat 0.000676
smaller tournament 58 outcome, insn 4796263, accesses 8193, hits 0,    config 3 -way
smaller tournament 59, insn 4906691, accesses_since_last 131073, miss_sat 0, miss_rat 0.000667
smaller tournament 59 outcome, insn 4906711, accesses 29, hits 2,    config 3 -way
smaller tournament 60, insn 5017981, accesses_since_last 131073, miss_sat 0, miss_rat 0.000652
smaller tournament 60 outcome, insn 5018574, accesses 697, hits 2,    config 3 -way
larger tournament 61, insn 5124474, accesses_since_last 126003,      miss_sat 2, miss_rat 0.000659
larger tournament 61 outcome, insn 5124490, accesses 18, hits 2, config 4 -way
smaller tournament 62, insn 5233505, accesses_since_last 131073, miss_sat 0, miss_rat 0.000646
smaller tournament 62 outcome, insn 5233867, accesses 404, hits 2,    config 4 -way
larger tournament 63, insn 5318726, accesses_since_last 95270,      miss_sat 2, miss_rat 0.000636
larger tournament 63 outcome, insn 5325976, accesses 8193, hits 0, config 4 -way
smaller tournament 64, insn 5443555, accesses_since_last 131073, miss_sat 0, miss_rat 0.000624
smaller tournament 64 outcome, insn 5446728, accesses 3577, hits 2,    config 4 -way
smaller tournament 65, insn 5565572, accesses_since_last 131073, miss_sat 0, miss_rat 0.000614
smaller tournament 65 outcome, insn 5573277, accesses 8193, hits 0,    config 3 -way
smaller tournament 66, insn 5692935, accesses_since_last 131073, miss_sat 0, miss_rat 0.000605
smaller tournament 66 outcome, insn 5695516, accesses 2724, hits 2,    config 3 -way
larger tournament 67, insn 5726687, accesses_since_last 36372,      miss_sat 2, miss_rat 0.000620
larger tournament 67 outcome, insn 5726703, accesses 18, hits 2, config 4 -way
smaller tournament 68, insn 5844093, accesses_since_last 131073, miss_sat 0, miss_rat 0.000609
smaller tournament 68 outcome, insn 5849394, accesses 6059, hits 2,    config 4 -way
smaller tournament 69, insn 5966454, accesses_since_last 131073, miss_sat 0, miss_rat 0.000598
smaller tournament 69 outcome, insn 5973674, accesses 8193, hits 1,    config 3 -way
smaller tournament 70, insn 6090831, accesses_since_last 131073, miss_sat 0, miss_rat 0.000597
smaller tournament 70 outcome, insn 6090859, accesses 49, hits 2,    config 3 -way
larger tournament 71, insn 6198764, accesses_since_last 120938,      miss_sat 2, miss_rat 0.000610
larger tournament 71 outcome, insn 6198780, accesses 18, hits 2, config 4 -way
larger tournament 72, insn 6314290, accesses_since_last 128933,      miss_sat 2, miss_rat 0.000605
larger tournament 72 outcome, insn 6316568, accesses 2845, hits 2, config 5 -way
larger tournament 73, insn 6317372, accesses_since_last 1039,      miss_sat 2, miss_rat 0.000632
larger tournament 73 outcome, insn 6324369, accesses 8193, hits 0, config 5 -way
larger tournament 74, insn 6351344, accesses_since_last 31951,      miss_sat 2, miss_rat 0.000639
larger tournament 74 outcome, insn 6356791, accesses 7291, hits 2, config 6 -way
larger tournament 75, insn 6356803, accesses_since_last 21,      miss_sat 2, miss_rat 0.000736
larger tournament 75 outcome, insn 6357388, accesses 705, hits 2, config 7 -way
larger tournament 76, insn 6360504, accesses_since_last 3999,      miss_sat 2, miss_rat 0.000738
larger tournament 76 outcome, insn 6367232, accesses 8193, hits 0, config 7 -way
larger tournament 77, insn 6379796, accesses_since_last 14845,      miss_sat 2, miss_rat 0.000738
larger tournament 77 outcome, insn 6386375, accesses 8193, hits 0, config 7 -way
larger tournament 78, insn 6392689, accesses_since_last 7743,      miss_sat 2, miss_rat 0.000738
larger tournament 78 outcome, insn 6399499, accesses 8193, hits 0, config 7 -way
smaller tournament 79, insn 6509137, accesses_since_last 131073, miss_sat 0, miss_rat 0.000727
smaller tournament 79 outcome, insn 6516023, accesses 8193, hits 0,    config 6 -way
larger tournament 80, insn 6516411, accesses_since_last 450,      miss_sat 2, miss_rat 0.000726
larger tournament 80 outcome, insn 6523348, accesses 8193, hits 0, config 6 -way
smaller tournament 81, insn 6633893, accesses_since_last 131073, miss_sat 0, miss_rat 0.000716
smaller tournament 81 outcome, insn 6641190, accesses 8193, hits 0,    config 5 -way
smaller tournament 82, insn 6755827, accesses_since_last 131073, miss_sat 0, miss_rat 0.000703
smaller tournament 82 outcome, insn 6763075, accesses 8193, hits 0,    config 4 -way
smaller tournament 83, insn 6879745, accesses_since_last 131073, miss_sat 0, miss_rat 0.000691
smaller tournament 83 outcome, insn 6881514, accesses 2276, hits 2,    config 4 -way
smaller tournament 84, insn 6999196, accesses_since_last 131073, miss_sat 0, miss_rat 0.000680
smaller tournament 84 outcome, insn 7003252, accesses 4465, hits 2,    config 4 -way
smaller tournament 85, insn 7122234, accesses_since_last 131073, miss_sat 0, miss_rat 0.000669
smaller tournament 85 outcome, insn 7122364, accesses 138, hits 2,    config 4 -way
larger tournament 86, insn 7173124, accesses_since_last 59922,      miss_sat 2, miss_rat 0.000667
larger tournament 86 outcome, insn 7180387, accesses 8193, hits 0, config 4 -way
smaller tournament 87, insn 7300875, accesses_since_last 131073, miss_sat 0, miss_rat 0.000658
smaller tournament 87 outcome, insn 7302562, accesses 2127, hits 2,    config 4 -way
smaller tournament 88, insn 7417331, accesses_since_last 131073, miss_sat 0, miss_rat 0.000649
smaller tournament 88 outcome, insn 7424916, accesses 8193, hits 0,    config 3 -way
larger tournament 89, insn 7443827, accesses_since_last 22773,      miss_sat 2, miss_rat 0.000659
larger tournament 89 outcome, insn 7443855, accesses 37, hits 2, config 4 -way
smaller tournament 90, insn 7556256, accesses_since_last 131073, miss_sat 0, miss_rat 0.000652
smaller tournament 90 outcome, insn 7561563, accesses 6064, hits 2,    config 4 -way
smaller tournament 91, insn 7679132, accesses_since_last 131073, miss_sat 0, miss_rat 0.000643
smaller tournament 91 outcome, insn 7686708, accesses 8193, hits 1,    config 3 -way
smaller tournament 92, insn 7806895, accesses_since_last 131073, miss_sat 0, miss_rat 0.000638
smaller tournament 92 outcome, insn 7807359, accesses 549, hits 2,    config 3 -way
smaller tournament 93, insn 7924417, accesses_since_last 131073, miss_sat 0, miss_rat 0.000639
smaller tournament 93 outcome, insn 7925486, accesses 1245, hits 2,    config 3 -way
larger tournament 94, insn 7927037, accesses_since_last 1750,      miss_sat 2, miss_rat 0.000640
larger tournament 94 outcome, insn 7929785, accesses 3450, hits 2, config 4 -way
smaller tournament 95, insn 8042329, accesses_since_last 131073, miss_sat 0, miss_rat 0.000633
smaller tournament 95 outcome, insn 8049754, accesses 8193, hits 0,    config 3 -way
larger tournament 96, insn 8091139, accesses_since_last 48824,      miss_sat 2, miss_rat 0.000637
larger tournament 96 outcome, insn 8091173, accesses 44, hits 2, config 4 -way
smaller tournament 97, insn 8205463, accesses_since_last 131073, miss_sat 0, miss_rat 0.000629
smaller tournament 97 outcome, insn 8205994, accesses 654, hits 2,    config 4 -way
smaller tournament 98, insn 8321752, accesses_since_last 131073, miss_sat 0, miss_rat 0.000626
smaller tournament 98 outcome, insn 8327959, accesses 7172, hits 2,    config 4 -way
smaller tournament 99, insn 8444245, accesses_since_last 131073, miss_sat 0, miss_rat 0.000618
smaller tournament 99 outcome, insn 8451668, accesses 8193, hits 1,    config 3 -way
larger tournament 100, insn 8518679, accesses_since_last 78100,      miss_sat 2, miss_rat 0.000625
larger tournament 100 outcome, insn 8518724, accesses 52, hits 2, config 4 -way
smaller tournament 101, insn 8636499, accesses_since_last 131073, miss_sat 0, miss_rat 0.000618
smaller tournament 101 outcome, insn 8638867, accesses 2557, hits 2,    config 4 -way
smaller tournament 102, insn 8754419, accesses_since_last 131073, miss_sat 0, miss_rat 0.000610
smaller tournament 102 outcome, insn 8755395, accesses 1124, hits 2,    config 4 -way
smaller tournament 103, insn 8872087, accesses_since_last 131073, miss_sat 0, miss_rat 0.000603
smaller tournament 103 outcome, insn 8879746, accesses 8193, hits 0,    config 3 -way
smaller tournament 104, insn 8997026, accesses_since_last 131073, miss_sat 0, miss_rat 0.000606
smaller tournament 104 outcome, insn 8997319, accesses 330, hits 2,    config 3 -way
larger tournament 105, insn 9094286, accesses_since_last 111065,      miss_sat 2, miss_rat 0.000611
larger tournament 105 outcome, insn 9097738, accesses 3646, hits 2, config 4 -way
smaller tournament 106, insn 9212585, accesses_since_last 131073, miss_sat 0, miss_rat 0.000605
smaller tournament 106 outcome, insn 9216992, accesses 5260, hits 2,    config 4 -way
smaller tournament 107, insn 9333896, accesses_since_last 131073, miss_sat 0, miss_rat 0.000599
smaller tournament 107 outcome, insn 9338509, accesses 4930, hits 2,    config 4 -way
smaller tournament 108, insn 9454791, accesses_since_last 131073, miss_sat 0, miss_rat 0.000591
smaller tournament 108 outcome, insn 9456087, accesses 1458, hits 2,    config 4 -way
smaller tournament 109, insn 9572793, accesses_since_last 131073, miss_sat 0, miss_rat 0.000585
smaller tournament 109 outcome, insn 9573590, accesses 934, hits 2,    config 4 -way
smaller tournament 110, insn 9688047, accesses_since_last 131073, miss_sat 0, miss_rat 0.000581
smaller tournament 110 outcome, insn 9688559, accesses 712, hits 2,    config 4 -way
smaller tournament 111, insn 9796002, accesses_since_last 131073, miss_sat 0, miss_rat 0.000575
smaller tournament 111 outcome, insn 9797685, accesses 2129, hits 2,    config 4 -way
smaller tournament 112, insn 9908373, accesses_since_last 131073, miss_sat 0, miss_rat 0.000569
smaller tournament 112 outcome, insn 9915868, accesses 8193, hits 0,    config 3 -way
larger tournament 113, insn 9942279, accesses_since_last 30694,      miss_sat 2, miss_rat 0.000578
larger tournament 113 outcome, insn 9942546, accesses 331, hits 2, config 4 -way
smaller tournament 114, insn 10055623, accesses_since_last 131073, miss_sat 0, miss_rat 0.000574
smaller tournament 114 outcome, insn 10062386, accesses 8193, hits 0,    config 3 -way
larger tournament 115, insn 10109000, accesses_since_last 54108,      miss_sat 2, miss_rat 0.000582
larger tournament 115 outcome, insn 10109309, accesses 405, hits 2, config 4 -way
smaller tournament 116, insn 10225078, accesses_since_last 131073, miss_sat 0, miss_rat 0.000576
smaller tournament 116 outcome, insn 10228088, accesses 3891, hits 2,    config 4 -way
larger tournament 117, insn 10246570, accesses_since_last 21800,      miss_sat 2, miss_rat 0.000576
larger tournament 117 outcome, insn 10254380, accesses 8193, hits 0, config 4 -way
smaller tournament 118, insn 10372164, accesses_since_last 131073, miss_sat 0, miss_rat 0.000569
smaller tournament 118 outcome, insn 10379764, accesses 8193, hits 0,    config 3 -way
larger tournament 119, insn 10452246, accesses_since_last 82949,      miss_sat 2, miss_rat 0.000571
larger tournament 119 outcome, insn 10452264, accesses 35, hits 2, config 4 -way
smaller tournament 120, insn 10564368, accesses_since_last 131073, miss_sat 0, miss_rat 0.000565
smaller tournament 120 outcome, insn 10571787, accesses 8193, hits 1,    config 3 -way
larger tournament 121, insn 10584435, accesses_since_last 15190,      miss_sat 2, miss_rat 0.000565
larger tournament 121 outcome, insn 10584843, accesses 491, hits 2, config 4 -way
smaller tournament 122, insn 10699768, accesses_since_last 131073, miss_sat 0, miss_rat 0.000560
smaller tournament 122 outcome, insn 10706896, accesses 8193, hits 0,    config 3 -way
larger tournament 123, insn 10747814, accesses_since_last 46447,      miss_sat 2, miss_rat 0.000561
larger tournament 123 outcome, insn 10747826, accesses 14, hits 2, config 4 -way
smaller tournament 124, insn 10863739, accesses_since_last 131073, miss_sat 0, miss_rat 0.000557
smaller tournament 124 outcome, insn 10865297, accesses 1715, hits 2,    config 4 -way
smaller tournament 125, insn 10982078, accesses_since_last 131073, miss_sat 0, miss_rat 0.000552
smaller tournament 125 outcome, insn 10986903, accesses 5290, hits 2,    config 4 -way
smaller tournament 126, insn 11100653, accesses_since_last 131073, miss_sat 0, miss_rat 0.000548
smaller tournament 126 outcome, insn 11108271, accesses 8193, hits 0,    config 3 -way
larger tournament 127, insn 11123435, accesses_since_last 16949,      miss_sat 2, miss_rat 0.000549
larger tournament 127 outcome, insn 11123620, accesses 251, hits 2, config 4 -way
smaller tournament 128, insn 11240991, accesses_since_last 131073, miss_sat 0, miss_rat 0.000544
smaller tournament 128 outcome, insn 11248488, accesses 8193, hits 0,    config 3 -way
larger tournament 129, insn 11272515, accesses_since_last 29256,      miss_sat 2, miss_rat 0.000549
larger tournament 129 outcome, insn 11272521, accesses 8, hits 2, config 4 -way
smaller tournament 130, insn 11383849, accesses_since_last 131073, miss_sat 0, miss_rat 0.000545
smaller tournament 130 outcome, insn 11384303, accesses 471, hits 2,    config 4 -way
smaller tournament 131, insn 11495671, accesses_since_last 131073, miss_sat 0, miss_rat 0.000541
smaller tournament 131 outcome, insn 11503074, accesses 8193, hits 0,    config 3 -way
larger tournament 132, insn 11594699, accesses_since_last 102778,      miss_sat 2, miss_rat 0.000544
larger tournament 132 outcome, insn 11597020, accesses 2905, hits 2, config 4 -way
smaller tournament 133, insn 11712043, accesses_since_last 131073, miss_sat 0, miss_rat 0.000540
smaller tournament 133 outcome, insn 11719529, accesses 8193, hits 1,    config 3 -way
smaller tournament 134, insn 11836504, accesses_since_last 131073, miss_sat 0, miss_rat 0.000545
smaller tournament 134 outcome, insn 11836813, accesses 353, hits 2,    config 3 -way
larger tournament 135, insn 11855910, accesses_since_last 22880,      miss_sat 2, miss_rat 0.000549
larger tournament 135 outcome, insn 11855956, accesses 76, hits 2, config 4 -way
smaller tournament 136, insn 11967321, accesses_since_last 131073, miss_sat 0, miss_rat 0.000545
smaller tournament 136 outcome, insn 11971955, accesses 5643, hits 2,    config 4 -way
smaller tournament 137, insn 12085192, accesses_since_last 131073, miss_sat 0, miss_rat 0.000540
smaller tournament 137 outcome, insn 12092729, accesses 8193, hits 0,    config 3 -way
larger tournament 138, insn 12142289, accesses_since_last 56166,      miss_sat 2, miss_rat 0.000542
larger tournament 138 outcome, insn 12144618, accesses 2879, hits 2, config 4 -way
smaller tournament 139, insn 12262423, accesses_since_last 131073, miss_sat 0, miss_rat 0.000538
smaller tournament 139 outcome, insn 12262661, accesses 323, hits 2,    config 4 -way
smaller tournament 140, insn 12378632, accesses_since_last 131073, miss_sat 0, miss_rat 0.000533
smaller tournament 140 outcome, insn 12384489, accesses 6427, hits 2,    config 4 -way
smaller tournament 141, insn 12497115, accesses_since_last 131073, miss_sat 0, miss_rat 0.000530
smaller tournament 141 outcome, insn 12498057, accesses 1038, hits 2,    config 4 -way
smaller tournament 142, insn 12614642, accesses_since_last 131073, miss_sat 0, miss_rat 0.000526
smaller tournament 142 outcome, insn 12622389, accesses 8193, hits 0,    config 3 -way
smaller tournament 143, insn 12741258, accesses_since_last 131073, miss_sat 0, miss_rat 0.000532
smaller tournament 143 outcome, insn 12746412, accesses 5496, hits 2,    config 3 -way
larger tournament 144, insn 12760211, accesses_since_last 16461,      miss_sat 2, miss_rat 0.000533
larger tournament 144 outcome, insn 12761226, accesses 1185, hits 2, config 4 -way
smaller tournament 145, insn 12876132, accesses_since_last 131073, miss_sat 0, miss_rat 0.000529
smaller tournament 145 outcome, insn 12882433, accesses 8193, hits 1,    config 3 -way
larger tournament 146, insn 12889370, accesses_since_last 7590,      miss_sat 2, miss_rat 0.000530
larger tournament 146 outcome, insn 12890345, accesses 1112, hits 2, config 4 -way
smaller tournament 147, insn 13012253, accesses_since_last 131073, miss_sat 0, miss_rat 0.000526
smaller tournament 147 outcome, insn 13020125, accesses 8193, hits 0,    config 3 -way
larger tournament 148, insn 13083303, accesses_since_last 67513,      miss_sat 2, miss_rat 0.000525
larger tournament 148 outcome, insn 13083334, accesses 40, hits 2, config 4 -way
larger tournament 149, insn 13084332, accesses_since_last 1219,      miss_sat 2, miss_rat 0.000531
larger tournament 149 outcome, insn 13084371, accesses 50, hits 2, config 5 -way
larger tournament 150, insn 13086672, accesses_since_last 2837,      miss_sat 2, miss_rat 0.000535
larger tournament 150 outcome, insn 13087080, accesses 565, hits 2, config 6 -way
larger tournament 151, insn 13125147, accesses_since_last 45318,      miss_sat 2, miss_rat 0.000537
larger tournament 151 outcome, insn 13125367, accesses 289, hits 2, config 7 -way
larger tournament 152, insn 13126058, accesses_since_last 847,      miss_sat 2, miss_rat 0.000542
larger tournament 152 outcome, insn 13128552, accesses 3475, hits 2, config 8 -way
smaller tournament 153, insn 13238595, accesses_since_last 131073, miss_sat 0, miss_rat 0.000546
smaller tournament 153 outcome, insn 13245415, accesses 8193, hits 0,    config 7 -way
smaller tournament 154, insn 13360199, accesses_since_last 131073, miss_sat 0, miss_rat 0.000541
smaller tournament 154 outcome, insn 13367494, accesses 8193, hits 0,    config 6 -way
smaller tournament 155, insn 13483409, accesses_since_last 131073, miss_sat 0, miss_rat 0.000536
smaller tournament 155 outcome, insn 13490198, accesses 8193, hits 0,    config 5 -way
smaller tournament 156, insn 13602330, accesses_since_last 131073, miss_sat 0, miss_rat 0.000532
smaller tournament 156 outcome, insn 13602433, accesses 208, hits 2,    config 5 -way
smaller tournament 157, insn 13713787, accesses_since_last 131073, miss_sat 0, miss_rat 0.000528
smaller tournament 157 outcome, insn 13720852, accesses 8193, hits 0,    config 4 -way
smaller tournament 158, insn 13833749, accesses_since_last 131073, miss_sat 0, miss_rat 0.000524
smaller tournament 158 outcome, insn 13841258, accesses 8193, hits 0,    config 3 -way
smaller tournament 159, insn 13956507, accesses_since_last 131073, miss_sat 0, miss_rat 0.000528
smaller tournament 159 outcome, insn 13957115, accesses 731, hits 2,    config 3 -way
larger tournament 160, insn 14041222, accesses_since_last 100533,      miss_sat 2, miss_rat 0.000528
larger tournament 160 outcome, insn 14042527, accesses 1762, hits 2, config 4 -way
smaller tournament 161, insn 14151215, accesses_since_last 131073, miss_sat 0, miss_rat 0.000525
smaller tournament 161 outcome, insn 14157995, accesses 8193, hits 0,    config 3 -way
larger tournament 162, insn 14169699, accesses_since_last 13926,      miss_sat 2, miss_rat 0.000524
larger tournament 162 outcome, insn 14170337, accesses 906, hits 2, config 4 -way
smaller tournament 163, insn 14280212, accesses_since_last 131073, miss_sat 0, miss_rat 0.000521
smaller tournament 163 outcome, insn 14287305, accesses 8193, hits 0,    config 3 -way
larger tournament 164, insn 14349944, accesses_since_last 72487,      miss_sat 2, miss_rat 0.000520
larger tournament 164 outcome, insn 14350184, accesses 307, hits 2, config 4 -way
smaller tournament 165, insn 14463556, accesses_since_last 131073, miss_sat 0, miss_rat 0.000516
smaller tournament 165 outcome, insn 14471386, accesses 8193, hits 0,    config 3 -way
smaller tournament 166, insn 14588135, accesses_since_last 131073, miss_sat 0, miss_rat 0.000515
smaller tournament 166 outcome, insn 14588252, accesses 126, hits 2,    config 3 -way
smaller tournament 167, insn 14706710, accesses_since_last 131073, miss_sat 0, miss_rat 0.000514
smaller tournament 167 outcome, insn 14707337, accesses 932, hits 2,    config 3 -way
smaller tournament 168, insn 14815999, accesses_since_last 131073, miss_sat 0, miss_rat 0.000517
smaller tournament 168 outcome, insn 14816116, accesses 128, hits 2,    config 3 -way
smaller tournament 169, insn 14924205, accesses_since_last 131073, miss_sat 0, miss_rat 0.000514
smaller tournament 169 outcome, insn 14924874, accesses 785, hits 2,    config 3 -way
larger tournament 170, insn 14952003, accesses_since_last 32768,      miss_sat 2, miss_rat 0.000516
larger tournament 170 outcome, insn 14952428, accesses 583, hits 2, config 4 -way
smaller tournament 171, insn 15066162, accesses_since_last 131073, miss_sat 0, miss_rat 0.000512
smaller tournament 171 outcome, insn 15069526, accesses 3920, hits 2,    config 4 -way
smaller tournament 172, insn 15183629, accesses_since_last 131073, miss_sat 0, miss_rat 0.000508
smaller tournament 172 outcome, insn 15190635, accesses 8193, hits 0,    config 3 -way
smaller tournament 173, insn 15306253, accesses_since_last 131073, miss_sat 0, miss_rat 0.000505
smaller tournament 173 outcome, insn 15306781, accesses 576, hits 2,    config 3 -way
smaller tournament 174, insn 15419135, accesses_since_last 131073, miss_sat 0, miss_rat 0.000509
smaller tournament 174 outcome, insn 15419996, accesses 1004, hits 2,    config 3 -way
smaller tournament 175, insn 15533882, accesses_since_last 131073, miss_sat 0, miss_rat 0.000512
smaller tournament 175 outcome, insn 15541640, accesses 8193, hits 0,    config 2 -way
larger tournament 176, insn 15551756, accesses_since_last 11479,      miss_sat 2, miss_rat 0.000517
larger tournament 176 outcome, insn 15551765, accesses 12, hits 2, config 3 -way
larger tournament 177, insn 15582019, accesses_since_last 33735,      miss_sat 2, miss_rat 0.000518
larger tournament 177 outcome, insn 15583214, accesses 1416, hits 2, config 4 -way
larger tournament 178, insn 15633004, accesses_since_last 56623,      miss_sat 2, miss_rat 0.000517
larger tournament 178 outcome, insn 15637598, accesses 5516, hits 2, config 5 -way
smaller tournament 179, insn 15753427, accesses_since_last 131073, miss_sat 0, miss_rat 0.000513
smaller tournament 179 outcome, insn 15760207, accesses 8193, hits 0,    config 4 -way
smaller tournament 180, insn 15875974, accesses_since_last 131073, miss_sat 0, miss_rat 0.000509
smaller tournament 180 outcome, insn 15882911, accesses 8193, hits 1,    config 3 -way
smaller tournament 181, insn 15998812, accesses_since_last 131073, miss_sat 0, miss_rat 0.000513
smaller tournament 181 outcome, insn 16000363, accesses 1678, hits 2,    config 3 -way
smaller tournament 182, insn 16118985, accesses_since_last 131073, miss_sat 0, miss_rat 0.000511
smaller tournament 182 outcome, insn 16126848, accesses 8193, hits 0,    config 2 -way
larger tournament 183, insn 16128809, accesses_since_last 2264,      miss_sat 2, miss_rat 0.000512
larger tournament 183 outcome, insn 16128817, accesses 10, hits 2, config 3 -way
smaller tournament 184, insn 16244595, accesses_since_last 131073, miss_sat 0, miss_rat 0.000511
smaller tournament 184 outcome, insn 16245729, accesses 1255, hits 2,    config 3 -way
smaller tournament 185, insn 16362816, accesses_since_last 131073, miss_sat 0, miss_rat 0.000508
smaller tournament 185 outcome, insn 16366033, accesses 3416, hits 2,    config 3 -way
smaller tournament 186, insn 16479673, accesses_since_last 131073, miss_sat 0, miss_rat 0.000508
smaller tournament 186 outcome, insn 16479814, accesses 150, hits 2,    config 3 -way
smaller tournament 187, insn 16596527, accesses_since_last 131073, miss_sat 0, miss_rat 0.000505
smaller tournament 187 outcome, insn 16604392, accesses 8193, hits 0,    config 2 -way
larger tournament 188, insn 16625097, accesses_since_last 22062,      miss_sat 2, miss_rat 0.000506
larger tournament 188 outcome, insn 16625133, accesses 67, hits 2, config 3 -way
larger tournament 189, insn 16640471, accesses_since_last 17277,      miss_sat 2, miss_rat 0.000507
larger tournament 189 outcome, insn 16640997, accesses 720, hits 2, config 4 -way
larger tournament 190, insn 16710616, accesses_since_last 82521,      miss_sat 2, miss_rat 0.000506
larger tournament 190 outcome, insn 16712168, accesses 1870, hits 2, config 5 -way
smaller tournament 191, insn 16824067, accesses_since_last 131073, miss_sat 0, miss_rat 0.000503
smaller tournament 191 outcome, insn 16830987, accesses 8193, hits 0,    config 4 -way
smaller tournament 192, insn 16942528, accesses_since_last 131073, miss_sat 0, miss_rat 0.000500
smaller tournament 192 outcome, insn 16949274, accesses 8193, hits 1,    config 3 -way
larger tournament 193, insn 17051081, accesses_since_last 116948,      miss_sat 2, miss_rat 0.000501
larger tournament 193 outcome, insn 17051101, accesses 25, hits 2, config 4 -way
smaller tournament 194, insn 17167262, accesses_since_last 131073, miss_sat 0, miss_rat 0.000499
smaller tournament 194 outcome, insn 17167675, accesses 535, hits 2,    config 4 -way
smaller tournament 195, insn 17284167, accesses_since_last 131073, miss_sat 0, miss_rat 0.000497
smaller tournament 195 outcome, insn 17286435, accesses 2930, hits 2,    config 4 -way
smaller tournament 196, insn 17401761, accesses_since_last 131073, miss_sat 0, miss_rat 0.000493
smaller tournament 196 outcome, insn 17409234, accesses 8193, hits 0,    config 3 -way
larger tournament 197, insn 17422477, accesses_since_last 15388,      miss_sat 2, miss_rat 0.000494
larger tournament 197 outcome, insn 17422486, accesses 12, hits 2, config 4 -way
larger tournament 198, insn 17534388, accesses_since_last 125363,      miss_sat 2, miss_rat 0.000492
larger tournament 198 outcome, insn 17535947, accesses 1914, hits 2, config 5 -way
smaller tournament 199, insn 17650856, accesses_since_last 131073, miss_sat 0, miss_rat 0.000488
smaller tournament 199 outcome, insn 17657955, accesses 8193, hits 1,    config 4 -way
smaller tournament 200, insn 17775133, accesses_since_last 131073, miss_sat 0, miss_rat 0.000485
smaller tournament 200 outcome, insn 17782836, accesses 8193, hits 0,    config 3 -way
smaller tournament 201, insn 17902049, accesses_since_last 131073, miss_sat 0, miss_rat 0.000484
smaller tournament 201 outcome, insn 17903713, accesses 1793, hits 2,    config 3 -way
smaller tournament 202, insn 18019252, accesses_since_last 131073, miss_sat 0, miss_rat 0.000482
smaller tournament 202 outcome, insn 18019672, accesses 441, hits 2,    config 3 -way
larger tournament 203, insn 18127344, accesses_since_last 122516,      miss_sat 2, miss_rat 0.000481
larger tournament 203 outcome, insn 18127354, accesses 13, hits 2, config 4 -way
smaller tournament 204, insn 18242754, accesses_since_last 131073, miss_sat 0, miss_rat 0.000479
smaller tournament 204 outcome, insn 18248872, accesses 6627, hits 2,    config 4 -way
smaller tournament 205, insn 18362785, accesses_since_last 131073, miss_sat 0, miss_rat 0.000477
smaller tournament 205 outcome, insn 18365589, accesses 3085, hits 2,    config 4 -way
smaller tournament 206, insn 18479083, accesses_since_last 131073, miss_sat 0, miss_rat 0.000475
smaller tournament 206 outcome, insn 18486688, accesses 8193, hits 0,    config 3 -way
larger tournament 207, insn 18551679, accesses_since_last 73843,      miss_sat 2, miss_rat 0.000477
larger tournament 207 outcome, insn 18558635, accesses 8193, hits 1, config 3 -way
smaller tournament 208, insn 18674986, accesses_since_last 131073, miss_sat 0, miss_rat 0.000478
smaller tournament 208 outcome, insn 18675471, accesses 523, hits 2,    config 3 -way
smaller tournament 209, insn 18790806, accesses_since_last 131073, miss_sat 0, miss_rat 0.000479
smaller tournament 209 outcome, insn 18791066, accesses 304, hits 2,    config 3 -way
larger tournament 210, insn 18899838, accesses_since_last 125750,      miss_sat 2, miss_rat 0.000483
larger tournament 210 outcome, insn 18899919, accesses 108, hits 2, config 4 -way
smaller tournament 211, insn 19015989, accesses_since_last 131073, miss_sat 0, miss_rat 0.000480
smaller tournament 211 outcome, insn 19018483, accesses 2999, hits 2,    config 4 -way
smaller tournament 212, insn 19132957, accesses_since_last 131073, miss_sat 0, miss_rat 0.000477
smaller tournament 212 outcome, insn 19133409, accesses 586, hits 2,    config 4 -way
smaller tournament 213, insn 19245989, accesses_since_last 131073, miss_sat 0, miss_rat 0.000475
smaller tournament 213 outcome, insn 19247190, accesses 1311, hits 2,    config 4 -way
smaller tournament 214, insn 19364221, accesses_since_last 131073, miss_sat 0, miss_rat 0.000472
smaller tournament 214 outcome, insn 19369978, accesses 6628, hits 2,    config 4 -way
smaller tournament 215, insn 19484258, accesses_since_last 131073, miss_sat 0, miss_rat 0.000470
smaller tournament 215 outcome, insn 19487547, accesses 3975, hits 2,    config 4 -way
smaller tournament 216, insn 19607711, accesses_since_last 131073, miss_sat 0, miss_rat 0.000467
smaller tournament 216 outcome, insn 19615274, accesses 8193, hits 0,    config 3 -way
larger tournament 217, insn 19705064, accesses_since_last 102744,      miss_sat 2, miss_rat 0.000469
larger tournament 217 outcome, insn 19705076, accesses 14, hits 2, config 4 -way
smaller tournament 218, insn 19818720, accesses_since_last 131073, miss_sat 0, miss_rat 0.000467
smaller tournament 218 outcome, insn 19819097, accesses 449, hits 2,    config 4 -way
smaller tournament 219, insn 19938446, accesses_since_last 131073, miss_sat 0, miss_rat 0.000464
smaller tournament 219 outcome, insn 19946216, accesses 8193, hits 0,    config 3 -way
smaller tournament 220, insn 20062216, accesses_since_last 131073, miss_sat 0, miss_rat 0.000466
smaller tournament 220 outcome, insn 20065295, accesses 3494, hits 2,    config 3 -way
smaller tournament 221, insn 20185461, accesses_since_last 131073, miss_sat 0, miss_rat 0.000465
smaller tournament 221 outcome, insn 20186373, accesses 1005, hits 2,    config 3 -way
smaller tournament 222, insn 20303079, accesses_since_last 131073, miss_sat 0, miss_rat 0.000468
smaller tournament 222 outcome, insn 20310900, accesses 8193, hits 0,    config 2 -way
larger tournament 223, insn 20316718, accesses_since_last 6665,      miss_sat 2, miss_rat 0.000472
larger tournament 223 outcome, insn 20316760, accesses 55, hits 2, config 3 -way
smaller tournament 224, insn 20436308, accesses_since_last 131073, miss_sat 0, miss_rat 0.000474
smaller tournament 224 outcome, insn 20436318, accesses 9, hits 2,    config 3 -way
smaller tournament 225, insn 20556000, accesses_since_last 131073, miss_sat 0, miss_rat 0.000474
smaller tournament 225 outcome, insn 20562308, accesses 6882, hits 2,    config 3 -way
smaller tournament 226, insn 20678022, accesses_since_last 131073, miss_sat 0, miss_rat 0.000473
smaller tournament 226 outcome, insn 20679128, accesses 1359, hits 2,    config 3 -way
smaller tournament 227, insn 20792622, accesses_since_last 131073, miss_sat 0, miss_rat 0.000478
smaller tournament 227 outcome, insn 20793993, accesses 1432, hits 2,    config 3 -way
smaller tournament 228, insn 20912329, accesses_since_last 131073, miss_sat 0, miss_rat 0.000477
smaller tournament 228 outcome, insn 20913542, accesses 1273, hits 2,    config 3 -way
larger tournament 229, insn 20970651, accesses_since_last 64957,      miss_sat 2, miss_rat 0.000478
larger tournament 229 outcome, insn 20971471, accesses 1014, hits 2, config 4 -way
smaller tournament 230, insn 21087299, accesses_since_last 131073, miss_sat 0, miss_rat 0.000476
smaller tournament 230 outcome, insn 21087424, accesses 157, hits 2,    config 4 -way
smaller tournament 231, insn 21204942, accesses_since_last 131073, miss_sat 0, miss_rat 0.000474
smaller tournament 231 outcome, insn 21212777, accesses 8193, hits 0,    config 3 -way
smaller tournament 232, insn 21333353, accesses_since_last 131073, miss_sat 0, miss_rat 0.000472
smaller tournament 232 outcome, insn 21336012, accesses 2822, hits 2,    config 3 -way
smaller tournament 233, insn 21448460, accesses_since_last 131073, miss_sat 0, miss_rat 0.000472
smaller tournament 233 outcome, insn 21448852, accesses 474, hits 2,    config 3 -way
smaller tournament 234, insn 21563488, accesses_since_last 131073, miss_sat 0, miss_rat 0.000470
smaller tournament 234 outcome, insn 21563656, accesses 210, hits 2,    config 3 -way
smaller tournament 235, insn 21682749, accesses_since_last 131073, miss_sat 0, miss_rat 0.000469
smaller tournament 235 outcome, insn 21690542, accesses 8193, hits 0,    config 2 -way
larger tournament 236, insn 21725873, accesses_since_last 38695,      miss_sat 2, miss_rat 0.000479
larger tournament 236 outcome, insn 21725894, accesses 28, hits 2, config 3 -way
smaller tournament 237, insn 21842268, accesses_since_last 131073, miss_sat 0, miss_rat 0.000478
smaller tournament 237 outcome, insn 21844117, accesses 2090, hits 2,    config 3 -way
smaller tournament 238, insn 21961601, accesses_since_last 131073, miss_sat 0, miss_rat 0.000478
smaller tournament 238 outcome, insn 21962345, accesses 804, hits 2,    config 3 -way
smaller tournament 239, insn 22078257, accesses_since_last 131073, miss_sat 0, miss_rat 0.000478
smaller tournament 239 outcome, insn 22079223, accesses 1147, hits 2,    config 3 -way
smaller tournament 240, insn 22193171, accesses_since_last 131073, miss_sat 0, miss_rat 0.000478
smaller tournament 240 outcome, insn 22193193, accesses 22, hits 2,    config 3 -way
smaller tournament 241, insn 22310658, accesses_since_last 131073, miss_sat 0, miss_rat 0.000478
smaller tournament 241 outcome, insn 22310939, accesses 354, hits 2,    config 3 -way
smaller tournament 242, insn 22429453, accesses_since_last 131073, miss_sat 0, miss_rat 0.000477
smaller tournament 242 outcome, insn 22429720, accesses 280, hits 2,    config 3 -way
smaller tournament 243, insn 22546255, accesses_since_last 131073, miss_sat 0, miss_rat 0.000478
smaller tournament 243 outcome, insn 22549356, accesses 3385, hits 2,    config 3 -way
larger tournament 244, insn 22634147, accesses_since_last 96171,      miss_sat 2, miss_rat 0.000480
larger tournament 244 outcome, insn 22636711, accesses 3005, hits 2, config 4 -way
smaller tournament 245, insn 22748285, accesses_since_last 131073, miss_sat 0, miss_rat 0.000479
smaller tournament 245 outcome, insn 22750741, accesses 2905, hits 2,    config 4 -way
smaller tournament 246, insn 22861260, accesses_since_last 131073, miss_sat 0, miss_rat 0.000477
smaller tournament 246 outcome, insn 22867883, accesses 8193, hits 0,    config 3 -way
smaller tournament 247, insn 22979244, accesses_since_last 131073, miss_sat 0, miss_rat 0.000479
smaller tournament 247 outcome, insn 22979372, accesses 167, hits 2,    config 3 -way
smaller tournament 248, insn 23091287, accesses_since_last 131073, miss_sat 0, miss_rat 0.000478
smaller tournament 248 outcome, insn 23092262, accesses 1323, hits 2,    config 3 -way
larger tournament 249, insn 23141890, accesses_since_last 57555,      miss_sat 2, miss_rat 0.000479
larger tournament 249 outcome, insn 23142750, accesses 1116, hits 2, config 4 -way
smaller tournament 250, insn 23255250, accesses_since_last 131073, miss_sat 0, miss_rat 0.000477
smaller tournament 250 outcome, insn 23256479, accesses 1436, hits 2,    config 4 -way
smaller tournament 251, insn 23372530, accesses_since_last 131073, miss_sat 0, miss_rat 0.000474
smaller tournament 251 outcome, insn 23380076, accesses 8193, hits 0,    config 3 -way
smaller tournament 252, insn 23498361, accesses_since_last 131073, miss_sat 0, miss_rat 0.000475
smaller tournament 252 outcome, insn 23498768, accesses 420, hits 2,    config 3 -way
smaller tournament 253, insn 23612293, accesses_since_last 131073, miss_sat 0, miss_rat 0.000474
smaller tournament 253 outcome, insn 23619613, accesses 7793, hits 2,    config 3 -way
larger tournament 254, insn 23623561, accesses_since_last 4718,      miss_sat 2, miss_rat 0.000475
larger tournament 254 outcome, insn 23623939, accesses 505, hits 2, config 4 -way
smaller tournament 255, insn 23736739, accesses_since_last 131073, miss_sat 0, miss_rat 0.000473
smaller tournament 255 outcome, insn 23738838, accesses 2295, hits 2,    config 4 -way
smaller tournament 256, insn 23854304, accesses_since_last 131073, miss_sat 0, miss_rat 0.000471
smaller tournament 256 outcome, insn 23857199, accesses 3472, hits 2,    config 4 -way
smaller tournament 257, insn 23970823, accesses_since_last 131073, miss_sat 0, miss_rat 0.000469
smaller tournament 257 outcome, insn 23972019, accesses 1409, hits 2,    config 4 -way
smaller tournament 258, insn 24086790, accesses_since_last 131073, miss_sat 0, miss_rat 0.000468
smaller tournament 258 outcome, insn 24088365, accesses 1861, hits 2,    config 4 -way
smaller tournament 259, insn 24201809, accesses_since_last 131073, miss_sat 0, miss_rat 0.000466
smaller tournament 259 outcome, insn 24202790, accesses 1168, hits 2,    config 4 -way
larger tournament 260, insn 24246277, accesses_since_last 47993,      miss_sat 2, miss_rat 0.000466
larger tournament 260 outcome, insn 24247222, accesses 1192, hits 2, config 5 -way
smaller tournament 261, insn 24364942, accesses_since_last 131073, miss_sat 0, miss_rat 0.000464
smaller tournament 261 outcome, insn 24372607, accesses 8193, hits 0,    config 4 -way
smaller tournament 262, insn 24488569, accesses_since_last 131073, miss_sat 0, miss_rat 0.000462
smaller tournament 262 outcome, insn 24495522, accesses 8193, hits 0,    config 3 -way
smaller tournament 263, insn 24611374, accesses_since_last 131073, miss_sat 0, miss_rat 0.000463
smaller tournament 263 outcome, insn 24619099, accesses 8193, hits 0,    config 2 -way
larger tournament 264, insn 24633314, accesses_since_last 15414,      miss_sat 2, miss_rat 0.000463
larger tournament 264 outcome, insn 24633324, accesses 12, hits 2, config 3 -way
larger tournament 265, insn 24676078, accesses_since_last 47491,      miss_sat 2, miss_rat 0.000465
larger tournament 265 outcome, insn 24676086, accesses 10, hits 2, config 4 -way
smaller tournament 266, insn 24793438, accesses_since_last 131073, miss_sat 0, miss_rat 0.000465
smaller tournament 266 outcome, insn 24800660, accesses 8193, hits 0,    config 3 -way
smaller tournament 267, insn 24916857, accesses_since_last 131073, miss_sat 0, miss_rat 0.000465
smaller tournament 267 outcome, insn 24921966, accesses 5433, hits 2,    config 3 -way
larger tournament 268, insn 24935075, accesses_since_last 14570,      miss_sat 2, miss_rat 0.000465
larger tournament 268 outcome, insn 24937862, accesses 3279, hits 2, config 4 -way
smaller tournament 269, insn 25055310, accesses_since_last 131073, miss_sat 0, miss_rat 0.000463
smaller tournament 269 outcome, insn 25062661, accesses 8193, hits 1,    config 3 -way
larger tournament 270, insn 25089032, accesses_since_last 29074,      miss_sat 2, miss_rat 0.000463
larger tournament 270 outcome, insn 25089624, accesses 847, hits 2, config 4 -way
smaller tournament 271, insn 25204851, accesses_since_last 131073, miss_sat 0, miss_rat 0.000461
smaller tournament 271 outcome, insn 25212035, accesses 8193, hits 1,    config 3 -way
smaller tournament 272, insn 25328300, accesses_since_last 131073, miss_sat 0, miss_rat 0.000460
smaller tournament 272 outcome, insn 25328588, accesses 363, hits 2,    config 3 -way
larger tournament 273, insn 25413889, accesses_since_last 95580,      miss_sat 2, miss_rat 0.000460
larger tournament 273 outcome, insn 25413913, accesses 30, hits 2, config 4 -way
smaller tournament 274, insn 25530495, accesses_since_last 131073, miss_sat 0, miss_rat 0.000459
smaller tournament 274 outcome, insn 25534817, accesses 5211, hits 2,    config 4 -way
smaller tournament 275, insn 25652746, accesses_since_last 131073, miss_sat 0, miss_rat 0.000457
smaller tournament 275 outcome, insn 25659946, accesses 8193, hits 0,    config 3 -way
larger tournament 276, insn 25688489, accesses_since_last 32293,      miss_sat 2, miss_rat 0.000457
larger tournament 276 outcome, insn 25688507, accesses 20, hits 2, config 4 -way
smaller tournament 277, insn 25802940, accesses_since_last 131073, miss_sat 0, miss_rat 0.000457
smaller tournament 277 outcome, insn 25810683, accesses 8193, hits 0,    config 3 -way
larger tournament 278, insn 25849468, accesses_since_last 42593,      miss_sat 2, miss_rat 0.000457
larger tournament 278 outcome, insn 25849494, accesses 34, hits 2, config 4 -way
smaller tournament 279, insn 25966500, accesses_since_last 131073, miss_sat 0, miss_rat 0.000456
smaller tournament 279 outcome, insn 25967193, accesses 774, hits 2,    config 4 -way
smaller tournament 280, insn 26085072, accesses_since_last 131073, miss_sat 0, miss_rat 0.000454
smaller tournament 280 outcome, insn 26087761, accesses 3021, hits 2,    config 4 -way
smaller tournament 281, insn 26207243, accesses_since_last 131073, miss_sat 0, miss_rat 0.000452
smaller tournament 281 outcome, insn 26214272, accesses 8193, hits 1,    config 3 -way
larger tournament 282, insn 26238391, accesses_since_last 26491,      miss_sat 2, miss_rat 0.000451
larger tournament 282 outcome, insn 26238447, accesses 66, hits 2, config 4 -way
smaller tournament 283, insn 26354386, accesses_since_last 131073, miss_sat 0, miss_rat 0.000450
smaller tournament 283 outcome, insn 26362069, accesses 8193, hits 0,    config 3 -way
smaller tournament 284, insn 26479271, accesses_since_last 131073, miss_sat 0, miss_rat 0.000449
smaller tournament 284 outcome, insn 26486129, accesses 7289, hits 2,    config 3 -way
smaller tournament 285, insn 26600857, accesses_since_last 131073, miss_sat 0, miss_rat 0.000448
smaller tournament 285 outcome, insn 26602092, accesses 1343, hits 2,    config 3 -way
smaller tournament 286, insn 26718324, accesses_since_last 131073, miss_sat 0, miss_rat 0.000451
smaller tournament 286 outcome, insn 26719160, accesses 941, hits 2,    config 3 -way
smaller tournament 287, insn 26835575, accesses_since_last 131073, miss_sat 0, miss_rat 0.000451
smaller tournament 287 outcome, insn 26836204, accesses 684, hits 2,    config 3 -way
smaller tournament 288, insn 26954925, accesses_since_last 131073, miss_sat 0, miss_rat 0.000449
smaller tournament 288 outcome, insn 26954929, accesses 5, hits 2,    config 3 -way
larger tournament 289, insn 26978382, accesses_since_last 25681,      miss_sat 2, miss_rat 0.000451
larger tournament 289 outcome, insn 26978402, accesses 23, hits 2, config 4 -way
smaller tournament 290, insn 27097887, accesses_since_last 131073, miss_sat 0, miss_rat 0.000449
smaller tournament 290 outcome, insn 27105617, accesses 8193, hits 0,    config 3 -way
larger tournament 291, insn 27122866, accesses_since_last 18745,      miss_sat 2, miss_rat 0.000449
larger tournament 291 outcome, insn 27123772, accesses 1010, hits 2, config 4 -way
smaller tournament 292, insn 27240091, accesses_since_last 131073, miss_sat 0, miss_rat 0.000447
smaller tournament 292 outcome, insn 27241568, accesses 1817, hits 2,    config 4 -way
smaller tournament 293, insn 27352223, accesses_since_last 131073, miss_sat 0, miss_rat 0.000446
smaller tournament 293 outcome, insn 27355116, accesses 3618, hits 2,    config 4 -way
smaller tournament 294, insn 27469987, accesses_since_last 131073, miss_sat 0, miss_rat 0.000444
smaller tournament 294 outcome, insn 27477628, accesses 8193, hits 0,    config 3 -way
larger tournament 295, insn 27564775, accesses_since_last 100952,      miss_sat 2, miss_rat 0.000445
larger tournament 295 outcome, insn 27564791, accesses 20, hits 2, config 4 -way
smaller tournament 296, insn 27683395, accesses_since_last 131073, miss_sat 0, miss_rat 0.000444
smaller tournament 296 outcome, insn 27684476, accesses 1216, hits 2,    config 4 -way
smaller tournament 297, insn 27802917, accesses_since_last 131073, miss_sat 0, miss_rat 0.000442
smaller tournament 297 outcome, insn 27808066, accesses 5574, hits 2,    config 4 -way
smaller tournament 298, insn 27925671, accesses_since_last 131073, miss_sat 0, miss_rat 0.000441
smaller tournament 298 outcome, insn 27925909, accesses 291, hits 2,    config 4 -way
smaller tournament 299, insn 28045284, accesses_since_last 131073, miss_sat 0, miss_rat 0.000439
smaller tournament 299 outcome, insn 28052944, accesses 8193, hits 0,    config 3 -way
larger tournament 300, insn 28064949, accesses_since_last 13143,      miss_sat 2, miss_rat 0.000439
larger tournament 300 outcome, insn 28065826, accesses 1012, hits 2, config 4 -way
smaller tournament 301, insn 28184226, accesses_since_last 131073, miss_sat 0, miss_rat 0.000437
smaller tournament 301 outcome, insn 28191828, accesses 8193, hits 0,    config 3 -way
larger tournament 302, insn 28298470, accesses_since_last 117393,      miss_sat 2, miss_rat 0.000437
larger tournament 302 outcome, insn 28299300, accesses 1018, hits 2, config 4 -way
smaller tournament 303, insn 28417823, accesses_since_last 131073, miss_sat 0, miss_rat 0.000436
smaller tournament 303 outcome, insn 28425409, accesses 8193, hits 0,    config 3 -way
larger tournament 304, insn 28491505, accesses_since_last 75093,      miss_sat 2, miss_rat 0.000438
larger tournament 304 outcome, insn 28491521, accesses 18, hits 2, config 4 -way
smaller tournament 305, insn 28607442, accesses_since_last 131073, miss_sat 0, miss_rat 0.000437
smaller tournament 305 outcome, insn 28614360, accesses 7712, hits 2,    config 4 -way
smaller tournament 306, insn 28730390, accesses_since_last 131073, miss_sat 0, miss_rat 0.000436
smaller tournament 306 outcome, insn 28738081, accesses 8193, hits 0,    config 3 -way
smaller tournament 307, insn 28857992, accesses_since_last 131073, miss_sat 0, miss_rat 0.000436
smaller tournament 307 outcome, insn 28858011, accesses 36, hits 2,    config 3 -way
smaller tournament 308, insn 28977234, accesses_since_last 131073, miss_sat 0, miss_rat 0.000435
smaller tournament 308 outcome, insn 28984337, accesses 7593, hits 2,    config 3 -way
larger tournament 309, insn 29002194, accesses_since_last 20057,      miss_sat 2, miss_rat 0.000436
larger tournament 309 outcome, insn 29002202, accesses 10, hits 2, config 4 -way
smaller tournament 310, insn 29119874, accesses_since_last 131073, miss_sat 0, miss_rat 0.000434
smaller tournament 310 outcome, insn 29127570, accesses 8193, hits 0,    config 3 -way
larger tournament 311, insn 29173715, accesses_since_last 50552,      miss_sat 2, miss_rat 0.000435
larger tournament 311 outcome, insn 29173858, accesses 200, hits 2, config 4 -way
larger tournament 312, insn 29174457, accesses_since_last 696,      miss_sat 2, miss_rat 0.000436
larger tournament 312 outcome, insn 29174496, accesses 49, hits 2, config 5 -way
larger tournament 313, insn 29175178, accesses_since_last 736,      miss_sat 2, miss_rat 0.000437
larger tournament 313 outcome, insn 29175309, accesses 168, hits 2, config 6 -way
larger tournament 314, insn 29176797, accesses_since_last 1938,      miss_sat 2, miss_rat 0.000437
larger tournament 314 outcome, insn 29178790, accesses 2279, hits 2, config 7 -way
larger tournament 315, insn 29210092, accesses_since_last 36828,      miss_sat 2, miss_rat 0.000439
larger tournament 315 outcome, insn 29211066, accesses 1288, hits 2, config 8 -way
smaller tournament 316, insn 29322630, accesses_since_last 131073, miss_sat 0, miss_rat 0.000442
smaller tournament 316 outcome, insn 29329977, accesses 8193, hits 0,    config 7 -way
smaller tournament 317, insn 29446745, accesses_since_last 131073, miss_sat 0, miss_rat 0.000440
smaller tournament 317 outcome, insn 29449049, accesses 2866, hits 2,    config 7 -way
smaller tournament 318, insn 29565785, accesses_since_last 131073, miss_sat 0, miss_rat 0.000438
smaller tournament 318 outcome, insn 29572466, accesses 8193, hits 0,    config 6 -way
smaller tournament 319, insn 29689294, accesses_since_last 131073, miss_sat 0, miss_rat 0.000436
smaller tournament 319 outcome, insn 29696566, accesses 8193, hits 0,    config 5 -way
smaller tournament 320, insn 29810674, accesses_since_last 131073, miss_sat 0, miss_rat 0.000435
smaller tournament 320 outcome, insn 29817562, accesses 8193, hits 1,    config 4 -way
larger tournament 321, insn 29916122, accesses_since_last 116139,      miss_sat 2, miss_rat 0.000434
larger tournament 321 outcome, insn 29916155, accesses 37, hits 2, config 5 -way
smaller tournament 322, insn 30029418, accesses_since_last 131073, miss_sat 0, miss_rat 0.000433
smaller tournament 322 outcome, insn 30031616, accesses 2803, hits 2,    config 5 -way
smaller tournament 323, insn 30148013, accesses_since_last 131073, miss_sat 0, miss_rat 0.000431
smaller tournament 323 outcome, insn 30155066, accesses 8193, hits 0,    config 4 -way
smaller tournament 324, insn 30266586, accesses_since_last 131073, miss_sat 0, miss_rat 0.000431
smaller tournament 324 outcome, insn 30274123, accesses 8193, hits 0,    config 3 -way
smaller tournament 325, insn 30389386, accesses_since_last 131073, miss_sat 0, miss_rat 0.000432
smaller tournament 325 outcome, insn 30389675, accesses 338, hits 2,    config 3 -way
smaller tournament 326, insn 30509729, accesses_since_last 131073, miss_sat 0, miss_rat 0.000432
smaller tournament 326 outcome, insn 30510282, accesses 803, hits 2,    config 3 -way
smaller tournament 327, insn 30626502, accesses_since_last 131073, miss_sat 0, miss_rat 0.000434
smaller tournament 327 outcome, insn 30629193, accesses 2818, hits 2,    config 3 -way
smaller tournament 328, insn 30748286, accesses_since_last 131073, miss_sat 0, miss_rat 0.000434
smaller tournament 328 outcome, insn 30755839, accesses 8193, hits 0,    config 2 -way
larger tournament 329, insn 30765930, accesses_since_last 11744,      miss_sat 2, miss_rat 0.000436
larger tournament 329 outcome, insn 30765983, accesses 82, hits 2, config 3 -way
smaller tournament 330, insn 30883797, accesses_since_last 131073, miss_sat 0, miss_rat 0.000437
smaller tournament 330 outcome, insn 30891470, accesses 8193, hits 1,    config 2 -way
larger tournament 331, insn 30896966, accesses_since_last 5889,      miss_sat 2, miss_rat 0.000438
larger tournament 331 outcome, insn 30896971, accesses 7, hits 2, config 3 -way
smaller tournament 332, insn 31015433, accesses_since_last 131073, miss_sat 0, miss_rat 0.000438
smaller tournament 332 outcome, insn 31017382, accesses 2219, hits 2,    config 3 -way
smaller tournament 333, insn 31137143, accesses_since_last 131073, miss_sat 0, miss_rat 0.000438
smaller tournament 333 outcome, insn 31137299, accesses 193, hits 2,    config 3 -way
smaller tournament 334, insn 31252506, accesses_since_last 131073, miss_sat 0, miss_rat 0.000441
smaller tournament 334 outcome, insn 31252632, accesses 141, hits 2,    config 3 -way
smaller tournament 335, insn 31365576, accesses_since_last 131073, miss_sat 0, miss_rat 0.000444
smaller tournament 335 outcome, insn 31366360, accesses 967, hits 2,    config 3 -way
smaller tournament 336, insn 31479364, accesses_since_last 131073, miss_sat 0, miss_rat 0.000447
smaller tournament 336 outcome, insn 31479448, accesses 99, hits 2,    config 3 -way
smaller tournament 337, insn 31595072, accesses_since_last 131073, miss_sat 0, miss_rat 0.000449
smaller tournament 337 outcome, insn 31601671, accesses 7146, hits 2,    config 3 -way
smaller tournament 338, insn 31717661, accesses_since_last 131073, miss_sat 0, miss_rat 0.000449
smaller tournament 338 outcome, insn 31718299, accesses 746, hits 2,    config 3 -way
smaller tournament 339, insn 31835587, accesses_since_last 131073, miss_sat 0, miss_rat 0.000449
smaller tournament 339 outcome, insn 31843133, accesses 8193, hits 0,    config 2 -way
larger tournament 340, insn 31847154, accesses_since_last 4591,      miss_sat 2, miss_rat 0.000449
larger tournament 340 outcome, insn 31847159, accesses 7, hits 2, config 3 -way
smaller tournament 341, insn 31963953, accesses_since_last 131073, miss_sat 0, miss_rat 0.000448
smaller tournament 341 outcome, insn 31963959, accesses 7, hits 2,    config 3 -way
smaller tournament 342, insn 32081485, accesses_since_last 131073, miss_sat 0, miss_rat 0.000448
smaller tournament 342 outcome, insn 32089067, accesses 8193, hits 0,    config 2 -way
larger tournament 343, insn 32092241, accesses_since_last 3627,      miss_sat 2, miss_rat 0.000448
larger tournament 343 outcome, insn 32092246, accesses 7, hits 2, config 3 -way
smaller tournament 344, insn 32208123, accesses_since_last 131073, miss_sat 0, miss_rat 0.000449
smaller tournament 344 outcome, insn 32211816, accesses 3961, hits 2,    config 3 -way
smaller tournament 345, insn 32331150, accesses_since_last 131073, miss_sat 0, miss_rat 0.000448
smaller tournament 345 outcome, insn 32338748, accesses 8193, hits 0,    config 2 -way
larger tournament 346, insn 32347559, accesses_since_last 9539,      miss_sat 2, miss_rat 0.000448
larger tournament 346 outcome, insn 32347665, accesses 110, hits 2, config 3 -way
smaller tournament 347, insn 32465049, accesses_since_last 131073, miss_sat 0, miss_rat 0.000448
smaller tournament 347 outcome, insn 32466080, accesses 1339, hits 2,    config 3 -way
larger tournament 348, insn 32479648, accesses_since_last 15293,      miss_sat 2, miss_rat 0.000450
larger tournament 348 outcome, insn 32479660, accesses 14, hits 2, config 4 -way
smaller tournament 349, insn 32594289, accesses_since_last 131073, miss_sat 0, miss_rat 0.000448
smaller tournament 349 outcome, insn 32601625, accesses 8193, hits 0,    config 3 -way
larger tournament 350, insn 32620305, accesses_since_last 21040,      miss_sat 2, miss_rat 0.000451
larger tournament 350 outcome, insn 32620692, accesses 491, hits 2, config 4 -way
larger tournament 351, insn 32624847, accesses_since_last 5104,      miss_sat 2, miss_rat 0.000451
larger tournament 351 outcome, insn 32624863, accesses 20, hits 2, config 5 -way
smaller tournament 352, insn 32737567, accesses_since_last 131073, miss_sat 0, miss_rat 0.000450
smaller tournament 352 outcome, insn 32744837, accesses 8193, hits 1,    config 4 -way
larger tournament 353, insn 32800445, accesses_since_last 60214,      miss_sat 2, miss_rat 0.000449
larger tournament 353 outcome, insn 32800496, accesses 73, hits 2, config 5 -way
smaller tournament 354, insn 32916607, accesses_since_last 131073, miss_sat 0, miss_rat 0.000448
smaller tournament 354 outcome, insn 32924188, accesses 8193, hits 0,    config 4 -way
smaller tournament 355, insn 33041378, accesses_since_last 131073, miss_sat 0, miss_rat 0.000446
smaller tournament 355 outcome, insn 33049237, accesses 8193, hits 0,    config 3 -way
smaller tournament 356, insn 33168860, accesses_since_last 131073, miss_sat 0, miss_rat 0.000447
smaller tournament 356 outcome, insn 33176614, accesses 8193, hits 0,    config 2 -way
larger tournament 357, insn 33181840, accesses_since_last 5726,      miss_sat 2, miss_rat 0.000447
larger tournament 357 outcome, insn 33181845, accesses 7, hits 2, config 3 -way
smaller tournament 358, insn 33300483, accesses_since_last 131073, miss_sat 0, miss_rat 0.000448
smaller tournament 358 outcome, insn 33301871, accesses 1499, hits 2,    config 3 -way
smaller tournament 359, insn 33418064, accesses_since_last 131073, miss_sat 0, miss_rat 0.000449
smaller tournament 359 outcome, insn 33418487, accesses 473, hits 2,    config 3 -way
smaller tournament 360, insn 33533419, accesses_since_last 131073, miss_sat 0, miss_rat 0.000451
smaller tournament 360 outcome, insn 33541132, accesses 8193, hits 0,    config 2 -way
larger tournament 361, insn 33547350, accesses_since_last 7148,      miss_sat 2, miss_rat 0.000454
larger tournament 361 outcome, insn 33547392, accesses 54, hits 2, config 3 -way
smaller tournament 362, insn 33665284, accesses_since_last 131073, miss_sat 0, miss_rat 0.000455
smaller tournament 362 outcome, insn 33665430, accesses 176, hits 2,    config 3 -way
larger tournament 363, insn 33697421, accesses_since_last 36646,      miss_sat 2, miss_rat 0.000456
larger tournament 363 outcome, insn 33697829, accesses 491, hits 2, config 4 -way
smaller tournament 364, insn 33817190, accesses_since_last 131073, miss_sat 0, miss_rat 0.000455
smaller tournament 364 outcome, insn 33824741, accesses 8193, hits 0,    config 3 -way
larger tournament 365, insn 33925747, accesses_since_last 114339,      miss_sat 2, miss_rat 0.000455
larger tournament 365 outcome, insn 33925759, accesses 14, hits 2, config 4 -way
smaller tournament 366, insn 34039593, accesses_since_last 131073, miss_sat 0, miss_rat 0.000454
smaller tournament 366 outcome, insn 34046714, accesses 8193, hits 0,    config 3 -way
smaller tournament 367, insn 34162616, accesses_since_last 131073, miss_sat 0, miss_rat 0.000457
smaller tournament 367 outcome, insn 34163549, accesses 1082, hits 2,    config 3 -way
larger tournament 368, insn 34259447, accesses_since_last 105213,      miss_sat 2, miss_rat 0.000457
larger tournament 368 outcome, insn 34259453, accesses 8, hits 2, config 4 -way
smaller tournament 369, insn 34376507, accesses_since_last 131073, miss_sat 0, miss_rat 0.000456
smaller tournament 369 outcome, insn 34377459, accesses 1104, hits 2,    config 4 -way
smaller tournament 370, insn 34497664, accesses_since_last 131073, miss_sat 0, miss_rat 0.000455
smaller tournament 370 outcome, insn 34499257, accesses 1950, hits 2,    config 4 -way
smaller tournament 371, insn 34617411, accesses_since_last 131073, miss_sat 0, miss_rat 0.000453
smaller tournament 371 outcome, insn 34617746, accesses 345, hits 2,    config 4 -way
smaller tournament 372, insn 34733677, accesses_since_last 131073, miss_sat 0, miss_rat 0.000452
smaller tournament 372 outcome, insn 34741374, accesses 8193, hits 0,    config 3 -way
larger tournament 373, insn 34832848, accesses_since_last 100782,      miss_sat 2, miss_rat 0.000454
larger tournament 373 outcome, insn 34833112, accesses 333, hits 2, config 4 -way
smaller tournament 374, insn 34945952, accesses_since_last 131073, miss_sat 0, miss_rat 0.000453
smaller tournament 374 outcome, insn 34946570, accesses 750, hits 2,    config 4 -way
smaller tournament 375, insn 35061473, accesses_since_last 131073, miss_sat 0, miss_rat 0.000452
smaller tournament 375 outcome, insn 35062343, accesses 1017, hits 2,    config 4 -way
smaller tournament 376, insn 35176921, accesses_since_last 131073, miss_sat 0, miss_rat 0.000451
smaller tournament 376 outcome, insn 35177664, accesses 938, hits 2,    config 4 -way
smaller tournament 377, insn 35293283, accesses_since_last 131073, miss_sat 0, miss_rat 0.000450
smaller tournament 377 outcome, insn 35296969, accesses 3910, hits 2,    config 4 -way
smaller tournament 378, insn 35413583, accesses_since_last 131073, miss_sat 0, miss_rat 0.000449
smaller tournament 378 outcome, insn 35414867, accesses 1592, hits 2,    config 4 -way
smaller tournament 379, insn 35530547, accesses_since_last 131073, miss_sat 0, miss_rat 0.000447
smaller tournament 379 outcome, insn 35538159, accesses 8193, hits 0,    config 3 -way
smaller tournament 380, insn 35654855, accesses_since_last 131073, miss_sat 0, miss_rat 0.000448
smaller tournament 380 outcome, insn 35654873, accesses 28, hits 2,    config 3 -way
smaller tournament 381, insn 35771416, accesses_since_last 131073, miss_sat 0, miss_rat 0.000448
smaller tournament 381 outcome, insn 35773364, accesses 2128, hits 2,    config 3 -way
larger tournament 382, insn 35863858, accesses_since_last 102275,      miss_sat 2, miss_rat 0.000449
larger tournament 382 outcome, insn 35866522, accesses 3313, hits 2, config 4 -way
smaller tournament 383, insn 35977468, accesses_since_last 131073, miss_sat 0, miss_rat 0.000448
smaller tournament 383 outcome, insn 35984794, accesses 8193, hits 0,    config 3 -way
smaller tournament 384, insn 36101163, accesses_since_last 131073, miss_sat 0, miss_rat 0.000449
smaller tournament 384 outcome, insn 36106114, accesses 5195, hits 2,    config 3 -way
smaller tournament 385, insn 36225277, accesses_since_last 131073, miss_sat 0, miss_rat 0.000448
smaller tournament 385 outcome, insn 36225398, accesses 141, hits 2,    config 3 -way
smaller tournament 386, insn 36341948, accesses_since_last 131073, miss_sat 0, miss_rat 0.000450
smaller tournament 386 outcome, insn 36347377, accesses 5852, hits 2,    config 3 -way
larger tournament 387, insn 36400016, accesses_since_last 58816,      miss_sat 2, miss_rat 0.000450
larger tournament 387 outcome, insn 36401475, accesses 1739, hits 2, config 4 -way
smaller tournament 388, insn 36515412, accesses_since_last 131073, miss_sat 0, miss_rat 0.000449
smaller tournament 388 outcome, insn 36522713, accesses 8193, hits 0,    config 3 -way
smaller tournament 389, insn 36636222, accesses_since_last 131073, miss_sat 0, miss_rat 0.000449
smaller tournament 389 outcome, insn 36636872, accesses 763, hits 2,    config 3 -way
smaller tournament 390, insn 36750337, accesses_since_last 131073, miss_sat 0, miss_rat 0.000449
smaller tournament 390 outcome, insn 36750386, accesses 50, hits 2,    config 3 -way
smaller tournament 391, insn 36865929, accesses_since_last 131073, miss_sat 0, miss_rat 0.000449
smaller tournament 391 outcome, insn 36865942, accesses 13, hits 2,    config 3 -way
larger tournament 392, insn 36947717, accesses_since_last 93665,      miss_sat 2, miss_rat 0.000450
larger tournament 392 outcome, insn 36947763, accesses 64, hits 2, config 4 -way
smaller tournament 393, insn 37062011, accesses_since_last 131073, miss_sat 0, miss_rat 0.000449
smaller tournament 393 outcome, insn 37062096, accesses 106, hits 2,    config 4 -way
smaller tournament 394, insn 37175868, accesses_since_last 131073, miss_sat 0, miss_rat 0.000448
smaller tournament 394 outcome, insn 37182910, accesses 8193, hits 0,    config 3 -way
smaller tournament 395, insn 37296200, accesses_since_last 131073, miss_sat 0, miss_rat 0.000449
smaller tournament 395 outcome, insn 37296236, accesses 34, hits 2,    config 3 -way
smaller tournament 396, insn 37412249, accesses_since_last 131073, miss_sat 0, miss_rat 0.000451
smaller tournament 396 outcome, insn 37412774, accesses 622, hits 2,    config 3 -way
smaller tournament 397, insn 37527709, accesses_since_last 131073, miss_sat 0, miss_rat 0.000451
[...]
smaller tournament 464, insn 44316307, accesses_since_last 131073, miss_sat 0, miss_rat 0.000463
smaller tournament 464 outcome, insn 44323626, accesses 8193, hits 0,    config 5 -way
smaller tournament 465, insn 44438976, accesses_since_last 131073, miss_sat 0, miss_rat 0.000462
smaller tournament 465 outcome, insn 44445841, accesses 8193, hits 0,    config 4 -way
larger tournament 466, insn 44536164, accesses_since_last 107023,      miss_sat 2, miss_rat 0.000461
larger tournament 466 outcome, insn 44536172, accesses 10, hits 2, config 5 -way
smaller tournament 467, insn 44651226, accesses_since_last 131073, miss_sat 0, miss_rat 0.000460
smaller tournament 467 outcome, insn 44658613, accesses 8193, hits 0,    config 4 -way
smaller tournament 468, insn 44775467, accesses_since_last 131073, miss_sat 0, miss_rat 0.000459
smaller tournament 468 outcome, insn 44783144, accesses 8193, hits 1,    config 3 -way
larger tournament 469, insn 44862808, accesses_since_last 91690,      miss_sat 2, miss_rat 0.000460
larger tournament 469 outcome, insn 44862913, accesses 178, hits 2, config 4 -way
larger tournament 470, insn 44924348, accesses_since_last 72284,      miss_sat 2, miss_rat 0.000460
larger tournament 470 outcome, insn 44924358, accesses 13, hits 2, config 5 -way
smaller tournament 471, insn 45037140, accesses_since_last 131073, miss_sat 0, miss_rat 0.000459
smaller tournament 471 outcome, insn 45043477, accesses 8193, hits 0,    config 4 -way
smaller tournament 472, insn 45157772, accesses_since_last 131073, miss_sat 0, miss_rat 0.000458
smaller tournament 472 outcome, insn 45165163, accesses 8193, hits 0,    config 3 -way
larger tournament 473, insn 45268534, accesses_since_last 123780,      miss_sat 2, miss_rat 0.000461
larger tournament 473 outcome, insn 45275735, accesses 8193, hits 1, config 3 -way
larger tournament 474, insn 45369076, accesses_since_last 102701,      miss_sat 2, miss_rat 0.000462
larger tournament 474 outcome, insn 45371511, accesses 2839, hits 2, config 4 -way
smaller tournament 475, insn 45488492, accesses_since_last 131073, miss_sat 0, miss_rat 0.000461
smaller tournament 475 outcome, insn 45491617, accesses 3394, hits 2,    config 4 -way
smaller tournament 476, insn 45603919, accesses_since_last 131073, miss_sat 0, miss_rat 0.000460
smaller tournament 476 outcome, insn 45610273, accesses 7098, hits 2,    config 4 -way
smaller tournament 477, insn 45723127, accesses_since_last 131073, miss_sat 0, miss_rat 0.000459
smaller tournament 477 outcome, insn 45723809, accesses 737, hits 2,    config 4 -way
smaller tournament 478, insn 45839959, accesses_since_last 131073, miss_sat 0, miss_rat 0.000458
smaller tournament 478 outcome, insn 45842830, accesses 3185, hits 2,    config 4 -way
smaller tournament 479, insn 45953459, accesses_since_last 131073, miss_sat 0, miss_rat 0.000457
smaller tournament 479 outcome, insn 45954257, accesses 1041, hits 2,    config 4 -way
smaller tournament 480, insn 46068740, accesses_since_last 131073, miss_sat 0, miss_rat 0.000456
smaller tournament 480 outcome, insn 46076610, accesses 8193, hits 0,    config 3 -way
smaller tournament 481, insn 46193084, accesses_since_last 131073, miss_sat 0, miss_rat 0.000455
smaller tournament 481 outcome, insn 46194450, accesses 1673, hits 2,    config 3 -way
smaller tournament 482, insn 46312854, accesses_since_last 131073, miss_sat 0, miss_rat 0.000455
smaller tournament 482 outcome, insn 46313321, accesses 487, hits 2,    config 3 -way
smaller tournament 483, insn 46429921, accesses_since_last 131073, miss_sat 0, miss_rat 0.000455
smaller tournament 483 outcome, insn 46430616, accesses 776, hits 2,    config 3 -way
larger tournament 484, insn 46433875, accesses_since_last 3627,      miss_sat 2, miss_rat 0.000456
larger tournament 484 outcome, insn 46433883, accesses 10, hits 2, config 4 -way
smaller tournament 485, insn 46544220, accesses_since_last 131073, miss_sat 0, miss_rat 0.000455
smaller tournament 485 outcome, insn 46547341, accesses 3365, hits 2,    config 4 -way
smaller tournament 486, insn 46660275, accesses_since_last 131073, miss_sat 0, miss_rat 0.000455
smaller tournament 486 outcome, insn 46662036, accesses 2280, hits 2,    config 4 -way
smaller tournament 487, insn 46776844, accesses_since_last 131073, miss_sat 0, miss_rat 0.000454
smaller tournament 487 outcome, insn 46776932, accesses 106, hits 2,    config 4 -way
smaller tournament 488, insn 46887479, accesses_since_last 131073, miss_sat 0, miss_rat 0.000453
smaller tournament 488 outcome, insn 46892014, accesses 5314, hits 2,    config 4 -way
smaller tournament 489, insn 47004030, accesses_since_last 131073, miss_sat 0, miss_rat 0.000452
smaller tournament 489 outcome, insn 47004655, accesses 728, hits 2,    config 4 -way
smaller tournament 490, insn 47118901, accesses_since_last 131073, miss_sat 0, miss_rat 0.000451
smaller tournament 490 outcome, insn 47125020, accesses 7015, hits 2,    config 4 -way
smaller tournament 491, insn 47241291, accesses_since_last 131073, miss_sat 0, miss_rat 0.000450
smaller tournament 491 outcome, insn 47249004, accesses 8193, hits 0,    config 3 -way
smaller tournament 492, insn 47364586, accesses_since_last 131073, miss_sat 0, miss_rat 0.000450
smaller tournament 492 outcome, insn 47364823, accesses 272, hits 2,    config 3 -way
smaller tournament 493, insn 47483476, accesses_since_last 131073, miss_sat 0, miss_rat 0.000450
smaller tournament 493 outcome, insn 47483512, accesses 38, hits 2,    config 3 -way
larger tournament 494, insn 47502911, accesses_since_last 23184,      miss_sat 2, miss_rat 0.000451
larger tournament 494 outcome, insn 47502919, accesses 10, hits 2, config 4 -way
smaller tournament 495, insn 47614378, accesses_since_last 131073, miss_sat 0, miss_rat 0.000450
smaller tournament 495 outcome, insn 47621798, accesses 8193, hits 1,    config 3 -way
larger tournament 496, insn 47680856, accesses_since_last 67957,      miss_sat 2, miss_rat 0.000451
larger tournament 496 outcome, insn 47681300, accesses 521, hits 2, config 4 -way
smaller tournament 497, insn 47795129, accesses_since_last 131073, miss_sat 0, miss_rat 0.000450
smaller tournament 497 outcome, insn 47798678, accesses 4078, hits 2,    config 4 -way
smaller tournament 498, insn 47918165, accesses_since_last 131073, miss_sat 0, miss_rat 0.000449
smaller tournament 498 outcome, insn 47925830, accesses 8193, hits 0,    config 3 -way
smaller tournament 499, insn 48037551, accesses_since_last 131073, miss_sat 0, miss_rat 0.000452
smaller tournament 499 outcome, insn 48037658, accesses 171, hits 2,    config 3 -way
smaller tournament 500, insn 48151119, accesses_since_last 131073, miss_sat 0, miss_rat 0.000454
smaller tournament 500 outcome, insn 48151548, accesses 605, hits 2,    config 3 -way
larger tournament 501, insn 48171646, accesses_since_last 23873,      miss_sat 2, miss_rat 0.000455
larger tournament 501 outcome, insn 48172000, accesses 561, hits 2, config 4 -way
smaller tournament 502, insn 48282038, accesses_since_last 131073, miss_sat 0, miss_rat 0.000455
smaller tournament 502 outcome, insn 48284834, accesses 3208, hits 2,    config 4 -way
smaller tournament 503, insn 48399543, accesses_since_last 131073, miss_sat 0, miss_rat 0.000454
smaller tournament 503 outcome, insn 48407124, accesses 8193, hits 0,    config 3 -way
smaller tournament 504, insn 48525212, accesses_since_last 131073, miss_sat 0, miss_rat 0.000454
smaller tournament 504 outcome, insn 48527792, accesses 2692, hits 2,    config 3 -way
smaller tournament 505, insn 48647408, accesses_since_last 131073, miss_sat 0, miss_rat 0.000453
smaller tournament 505 outcome, insn 48655167, accesses 8193, hits 0,    config 2 -way
larger tournament 506, insn 48686347, accesses_since_last 33658,      miss_sat 2, miss_rat 0.000453
larger tournament 506 outcome, insn 48686365, accesses 29, hits 2, config 3 -way
smaller tournament 507, insn 48802774, accesses_since_last 131073, miss_sat 0, miss_rat 0.000453
smaller tournament 507 outcome, insn 48803206, accesses 446, hits 2,    config 3 -way
smaller tournament 508, insn 48920792, accesses_since_last 131073, miss_sat 0, miss_rat 0.000453
smaller tournament 508 outcome, insn 48921221, accesses 518, hits 2,    config 3 -way
smaller tournament 509, insn 49037054, accesses_since_last 131073, miss_sat 0, miss_rat 0.000453
smaller tournament 509 outcome, insn 49038424, accesses 1551, hits 2,    config 3 -way
smaller tournament 510, insn 49156751, accesses_since_last 131073, miss_sat 0, miss_rat 0.000453
smaller tournament 510 outcome, insn 49158073, accesses 1385, hits 2,    config 3 -way
smaller tournament 511, insn 49277314, accesses_since_last 131073, miss_sat 0, miss_rat 0.000452
smaller tournament 511 outcome, insn 49285150, accesses 8193, hits 0,    config 2 -way
larger tournament 512, insn 49336551, accesses_since_last 56114,      miss_sat 2, miss_rat 0.000453
larger tournament 512 outcome, insn 49336569, accesses 29, hits 2, config 3 -way
smaller tournament 513, insn 49447730, accesses_since_last 131073, miss_sat 0, miss_rat 0.000454
smaller tournament 513 outcome, insn 49448331, accesses 687, hits 2,    config 3 -way
smaller tournament 514, insn 49559683, accesses_since_last 131073, miss_sat 0, miss_rat 0.000455
smaller tournament 514 outcome, insn 49559843, accesses 170, hits 2,    config 3 -way
smaller tournament 515, insn 49670489, accesses_since_last 131073, miss_sat 0, miss_rat 0.000455
smaller tournament 515 outcome, insn 49670680, accesses 213, hits 2,    config 3 -way
smaller tournament 516, insn 49784676, accesses_since_last 131073, miss_sat 0, miss_rat 0.000455
smaller tournament 516 outcome, insn 49785803, accesses 1320, hits 2,    config 3 -way
smaller tournament 517, insn 49900871, accesses_since_last 131073, miss_sat 0, miss_rat 0.000455
smaller tournament 517 outcome, insn 49904614, accesses 4047, hits 2,    config 3 -way

sim: ** simulation statistics **
sim_num_insn               50000000 # total number of instructions committed
sim_num_refs               19034528 # total number of loads and stores committed
sim_num_loads              16030754 # total number of loads committed
sim_num_stores         3003774.0000 # total number of stores committed
sim_num_branches            5726244 # total number of branches committed
sim_elapsed_time                118 # total simulation time in seconds
sim_inst_rate           423728.8136 # simulation speed (in insts/sec)
sim_total_insn             54574568 # total number of instructions executed
sim_total_refs             20941513 # total number of loads and stores executed
sim_total_loads            17812141 # total number of loads executed
sim_total_stores       3129372.0000 # total number of stores executed
sim_total_branches          6268064 # total number of branches executed
sim_cycle                  31984388 # total simulation time in cycles
sim_IPC                      1.5633 # instructions per cycle
sim_CPI                      0.6397 # cycles per instruction
sim_exec_BW                  1.7063 # total instructions (mis-spec + committed) per cycle
sim_IPB                      8.7317 # instruction per branch
Cache_Config_Ratio     <error: variable is undefined> # Cache_Run_Ratio
IFQ_count                 114332286 # cumulative IFQ occupancy
IFQ_fcount                 26845983 # cumulative IFQ full count
ifq_occupancy                3.5746 # avg IFQ occupancy (insn's)
ifq_rate                     1.7063 # avg IFQ dispatch rate (insn/cycle)
ifq_latency                  2.0950 # avg IFQ occupant latency (cycle's)
ifq_full                     0.8393 # fraction of time (cycle's) IFQ was full
RUU_count                 422801794 # cumulative RUU occupancy
RUU_fcount                 16428829 # cumulative RUU full count
ruu_occupancy               13.2190 # avg RUU occupancy (insn's)
ruu_rate                     1.7063 # avg RUU dispatch rate (insn/cycle)
ruu_latency                  7.7472 # avg RUU occupant latency (cycle's)
ruu_full                     0.5137 # fraction of time (cycle's) RUU was full
LSQ_count                 157976000 # cumulative LSQ occupancy
LSQ_fcount                  6942956 # cumulative LSQ full count
lsq_occupancy                4.9392 # avg LSQ occupancy (insn's)
lsq_rate                     1.7063 # avg LSQ dispatch rate (insn/cycle)
lsq_latency                  2.8947 # avg LSQ occupant latency (cycle's)
lsq_full                     0.2171 # fraction of time (cycle's) LSQ was full
sim_slip                  624466858 # total number of slip cycles
avg_sim_slip                12.4893 # the average slip between issue and retirement
bpred_bimod.lookups         6518734 # total number of bpred lookups
bpred_bimod.updates         5726240 # total number of updates
bpred_bimod.addr_hits       5137426 # total number of address-predicted hits
bpred_bimod.dir_hits        5211987 # total number of direction-predicted hits (includes addr-hits)
bpred_bimod.misses           514253 # total number of misses
bpred_bimod.jr_hits          580881 # total number of address-predicted hits for JR's
bpred_bimod.jr_seen          653687 # total number of JR's seen
bpred_bimod.jr_non_ras_hits.PP        53084 # total number of address-predicted hits for non-RAS JR's
bpred_bimod.jr_non_ras_seen.PP       115890 # total number of non-RAS JR's seen
bpred_bimod.bpred_addr_rate    0.8972 # branch address-prediction rate (i.e., addr-hits/updates)
bpred_bimod.bpred_dir_rate    0.9102 # branch direction-prediction rate (i.e., all-hits/updates)
bpred_bimod.bpred_jr_rate    0.8886 # JR address-prediction rate (i.e., JR addr-hits/JRs seen)
bpred_bimod.bpred_jr_non_ras_rate.PP    0.4581 # non-RAS JR addr-pred rate (ie, non-RAS JR hits/JRs seen)
bpred_bimod.retstack_pushes       611375 # total number of address pushed onto ret-addr stack
bpred_bimod.retstack_pops       670968 # total number of address popped off of ret-addr stack
bpred_bimod.used_ras.PP       537797 # total number of RAS predictions used
bpred_bimod.ras_hits.PP       527797 # total number of RAS hits
bpred_bimod.ras_rate.PP    0.9814 # RAS prediction rate (i.e., RAS hits/used RAS)
il1.reconfigurations            263 # total number of reconfigurations
il1.tournaments                 517 # total number of tournaments
il1. Power-Saving            0.0000 # Power Saving 
il1. Smaller Cache Cnt      25586785 # SCC 
il1. Largerer Cache Cnt      31018910 # LCC 
il1.accesses               56744961 # total number of accesses
il1.hits                   56719117 # total number of hits
il1.misses                    25844 # total number of misses
il1.mnm_misses                    0 # total number MNM of misses
il1.replacements              22045 # total number of replacements
il1.writebacks                    0 # total number of writebacks
il1.invalidations                 0 # total number of invalidations
il1.miss_rate                0.0005 # miss rate (i.e., misses/ref)
il1.repl_rate                0.0004 # replacement rate (i.e., repls/ref)
il1.wb_rate                  0.0000 # writeback rate (i.e., wrbks/ref)
il1.inv_rate                 0.0000 # invalidation rate (i.e., invs/ref)
dl1.accesses               19658829 # total number of accesses
dl1.hits                   17743084 # total number of hits
dl1.misses                  1915745 # total number of misses
dl1.mnm_misses                    0 # total number MNM of misses
dl1.replacements            1915233 # total number of replacements
dl1.writebacks               443867 # total number of writebacks
dl1.invalidations                 0 # total number of invalidations
dl1.miss_rate                0.0974 # miss rate (i.e., misses/ref)
dl1.repl_rate                0.0974 # replacement rate (i.e., repls/ref)
dl1.wb_rate                  0.0226 # writeback rate (i.e., wrbks/ref)
dl1.inv_rate                 0.0000 # invalidation rate (i.e., invs/ref)
dl2.accesses                2385456 # total number of accesses
dl2.hits                    2219196 # total number of hits
dl2.misses                   166260 # total number of misses
dl2.mnm_misses               110741 # total number MNM of misses
dl2.replacements             164212 # total number of replacements
dl2.writebacks                14346 # total number of writebacks
dl2.invalidations                 0 # total number of invalidations
dl2.miss_rate                0.0697 # miss rate (i.e., misses/ref)
dl2.repl_rate                0.0688 # replacement rate (i.e., repls/ref)
dl2.wb_rate                  0.0060 # writeback rate (i.e., wrbks/ref)
dl2.inv_rate                 0.0000 # invalidation rate (i.e., invs/ref)
dl3.accesses                 180606 # total number of accesses
dl3.hits                     164020 # total number of hits
dl3.misses                    16586 # total number of misses
dl3.mnm_misses                  806 # total number MNM of misses
dl3.replacements               3935 # total number of replacements
dl3.writebacks                 1685 # total number of writebacks
dl3.invalidations                 0 # total number of invalidations
dl3.miss_rate                0.0918 # miss rate (i.e., misses/ref)
dl3.repl_rate                0.0218 # replacement rate (i.e., repls/ref)
dl3.wb_rate                  0.0093 # writeback rate (i.e., wrbks/ref)
dl3.inv_rate                 0.0000 # invalidation rate (i.e., invs/ref)
itlb.accesses              56744961 # total number of accesses
itlb.hits                  56744906 # total number of hits
itlb.misses                      55 # total number of misses
itlb.mnm_misses                   0 # total number MNM of misses
itlb.replacements                 3 # total number of replacements
itlb.writebacks                   0 # total number of writebacks
itlb.invalidations                0 # total number of invalidations
itlb.miss_rate               0.0000 # miss rate (i.e., misses/ref)
itlb.repl_rate               0.0000 # replacement rate (i.e., repls/ref)
itlb.wb_rate                 0.0000 # writeback rate (i.e., wrbks/ref)
itlb.inv_rate                0.0000 # invalidation rate (i.e., invs/ref)
dtlb.accesses              19695609 # total number of accesses
dtlb.hits                  19499843 # total number of hits
dtlb.misses                  195766 # total number of misses
dtlb.mnm_misses                   0 # total number MNM of misses
dtlb.replacements            195638 # total number of replacements
dtlb.writebacks                   0 # total number of writebacks
dtlb.invalidations                0 # total number of invalidations
dtlb.miss_rate               0.0099 # miss rate (i.e., misses/ref)
dtlb.repl_rate               0.0099 # replacement rate (i.e., repls/ref)
dtlb.wb_rate                 0.0000 # writeback rate (i.e., wrbks/ref)
dtlb.inv_rate                0.0000 # invalidation rate (i.e., invs/ref)
sim_invalid_addrs                 0 # total non-speculative bogus addresses seen (debug var)
ld_text_base           0x0120000000 # program text (code) segment base
ld_text_size                 442368 # program text (code) size in bytes
ld_data_base           0x0140000000 # program initialized data segment base
ld_data_size                1163616 # program init'ed `.data' and uninit'ed `.bss' size in bytes
ld_stack_base          0x011ff9b000 # program stack segment base (highest address in stack)
ld_stack_size                 16384 # program initial stack size
ld_prog_entry          0x01200106e0 # program entry point (initial PC)
ld_environ_base        0x011ff97000 # program environment base address address
ld_target_big_endian              0 # target executable endian-ness, non-zero if big endian
mem.page_count                  305 # total number of pages allocated
mem.page_mem                  2440k # total size of memory pages allocated
mem.ptab_misses              470306 # total first level page table misses
mem.ptab_accesses         488736824 # total page table accesses
mem.ptab_miss_rate           0.0010 # first level page table miss rate

