sim-outorder: SimpleScalar/Alpha Tool Set version 3.0 of August, 2003.
Copyright (c) 1994-2003 by Todd M. Austin, Ph.D. and SimpleScalar, LLC.
All Rights Reserved. This version of SimpleScalar is licensed for academic
non-commercial use.  No portion of this work may be used by any commercial
entity, or for any commercial purpose, without the prior written permission
of SimpleScalar, LLC (info@simplescalar.com).

warning: section `.comment' ignored...
sim: command line: /home/jai/Desktop/simplescalar/simplesim-RMNM-Flex/sim-outorder -cache:il1 il1:512:32:8:t:1:8192:131072:1 -cache:dl1 dl1:512:32:1:l -cache:dl2 dl2:2048:64:2:l -cache:dl3 dl3:4096:64:4:l -max:inst 50000000 -fastfwd 20000000 -redir:sim cache_RMNM-Flex_1.txt ../../spec2000binaries/equake00.peak.ev6 

sim: simulation started @ Sun Dec  6 06:08:33 2015, options follow:

sim-outorder: This simulator implements a very detailed out-of-order issue
superscalar processor with a two-level memory system and speculative
execution support.  This simulator is a performance simulator, tracking the
latency of all pipeline operations.

# -config                     # load configuration from a file
# -dumpconfig                 # dump configuration to a file
# -h                    false # print help message    
# -v                    false # verbose operation     
# -d                    false # enable debug message  
# -i                    false # start in Dlite debugger
-seed                       1 # random number generator seed (0 for timer seed)
# -q                    false # initialize and terminate immediately
# -chkpt               <null> # restore EIO trace execution from <fname>
# -redir:sim     cache_RMNM-Flex_1.txt # redirect simulator output to file (non-interactive only)
# -redir:prog          <null> # redirect simulated program output to file
-nice                       0 # simulator scheduling priority
-max:inst            50000000 # maximum number of inst's to execute
-fastfwd             20000000 # number of insts skipped before timing starts
# -ptrace              <null> # generate pipetrace, i.e., <fname|stdout|stderr> <range>
-fetch:ifqsize              4 # instruction fetch queue size (in insts)
-fetch:mplat                3 # extra branch mis-prediction latency
-fetch:speed                1 # speed of front-end of machine relative to execution core
-bpred                  bimod # branch predictor type {nottaken|taken|perfect|bimod|2lev|comb}
-bpred:bimod     2048 # bimodal predictor config (<table size>)
-bpred:2lev      1 1024 8 0 # 2-level predictor config (<l1size> <l2size> <hist_size> <xor>)
-bpred:comb      1024 # combining predictor config (<meta_table_size>)
-bpred:ras                  8 # return address stack size (0 for no return stack)
-bpred:btb       512 4 # BTB config (<num_sets> <associativity>)
# -bpred:spec_update       <null> # speculative predictors update in {ID|WB} (default non-spec)
-decode:width               4 # instruction decode B/W (insts/cycle)
-issue:width                4 # instruction issue B/W (insts/cycle)
-issue:inorder          false # run pipeline with in-order issue
-issue:wrongpath         true # issue instructions down wrong execution paths
-commit:width               4 # instruction commit B/W (insts/cycle)
-ruu:size                  16 # register update unit (RUU) size
-lsq:size                   8 # load/store queue (LSQ) size
-cache:dl1       dl1:512:32:1:l # l1 data cache config, i.e., {<config>|none}
-cache:dl1lat               1 # l1 data cache hit latency (in cycles)
-cache:dl2       dl2:2048:64:2:l # l2 data cache config, i.e., {<config>|none}
-cache:dl2lat               6 # l2 data cache hit latency (in cycles)
-cache:dl3       dl3:4096:64:4:l # l3 data cache config, i.e., {<config>|none}
-cache:dl3lat              10 # l3 data cache hit latency (in cycles)
-cache:il1       il1:512:32:8:t:1:8192:131072:1 # l1 inst cache config, i.e., {<config>|dl1|dl2|none}
-cache:il1lat               1 # l1 instruction cache hit latency (in cycles)
-cache:il2                dl2 # l2 instruction cache config, i.e., {<c../../spec2000binaries/equake00.peak.ev6: Reading nodes.
onfig>|dl2|none}
-cache:il2lat               6 # l2 instruction cache hit latency (in cycles)
-cache:il3                dl3 # l3 instruction cache config, i.e., {<config>|dl3|none}
-cache:il3lat              10 # l3 instruction cache hit latency (in cycles)
-cache:flush            false # flush caches on system calls
-cache:icompress        false # convert 64-bit inst addresses to 32-bit inst equivalents
-mem:lat         18 2 # memory access latency (<first_chunk> <inter_chunk>)
-mem:width                  8 # memory access bus width (in bytes)
-tlb:itlb        itlb:16:4096:4:l # instruction TLB config, i.e., {<config>|none}
-tlb:dtlb        dtlb:32:4096:4:l # data TLB config, i.e., {<config>|none}
-tlb:lat                   30 # inst/data TLB miss latency (in cycles)
-res:ialu                   4 # total number of integer ALU's available
-res:imult                  1 # total number of integer multiplier/dividers available
-res:memport                2 # total number of memory system ports available (to CPU)
-res:fpalu                  4 # total number of floating point ALU's available
-res:fpmult                 1 # total number of floating point multiplier/dividers available
# -pcstat              <null> # profile stat(s) against text addr's (mult uses ok)
-bugcompat              false # operate in backward-compatible bugs mode (for testing only)

  Pipetrace range arguments are formatted as follows:

    {{@|#}<start>}:{{@|#|+}<end>}

  Both ends of the range are optional, if neither are specified, the entire
  execution is traced.  Ranges that start with a `@' designate an address
  range to be traced, those that start with an `#' designate a cycle count
  range.  All other range values represent an instruction count range.  The
  second argument, if specified with a `+', indicates a value relative
  to the first argument, e.g., 1000:+100 == 1000:1100.  Program symbols may
  be used in all contexts.

    Examples:   -ptrace FOO.trc #0:#1000
                -ptrace BAR.trc @2000:
                -ptrace BLAH.trc :1500
                -ptrace UXXE.trc :
                -ptrace FOOBAR.trc @main:+278

  Branch predictor configuration examples for 2-level predictor:
    Configurations:   N, M, W, X
      N   # entries in first level (# of shift register(s))
      W   width of shift register(s)
      M   # entries in 2nd level (# of counters, or other FSM)
      X   (yes-1/no-0) xor history and address for 2nd level index
    Sample predictors:
      GAg     : 1, W, 2^W, 0
      GAp     : 1, W, M (M > 2^W), 0
      PAg     : N, W, 2^W, 0
      PAp     : N, W, M (M == 2^(N+W)), 0
      gshare  : 1, W, 2^W, 1
  Predictor `comb' combines a bimodal and a 2-level predictor.

  The cache config parameter <config> has the following format:

    <name>:<nsets>:<bsize>:<assoc>:<repl>

    <name>   - name of the cache being defined
    <nsets>  - number of sets in the cache
    <bsize>  - block size of the cache
    <assoc>  - associativity of the cache
    <repl>   - block replacement strategy, 'l'-LRU, 'f'-FIFO, 'r'-random

    Examples:   -cache:dl1 dl1:4096:32:1:l
                -dtlb dtlb:128:4096:32:r

  Cache levels can be unified by pointing a level of the instruction cache
  hierarchy at the data cache hiearchy using the "dl1" and "dl2" cache
  configuration arguments.  Most sensible combinations are supported, e.g.,

    A unified l2 cache (il2 is pointed at dl2):
      -cache:il1 il1:128:64:1:l -cache:il2 dl2
      -cache:dl1 dl1:256:32:1:l -cache:dl2 ul2:1024:64:2:l

    Or, a fully unified cache hierarchy (il1 pointed at dl1):
      -cache:il1 dl1
      -cache:dl1 ul1:256:32:1:l -cache:dl2 ul2:1024:64:2:l



sim: ** fast forwarding 20000000 insts **
sim: ** starting performance simulation **
smaller tournament 1, insn 120166, accesses_since_last 131073, miss_sat 0, miss_rat 0.002419
smaller tournament 1 outcome, insn 127670, accesses 8193, hits 0,    config 7 -way
smaller tournament 2, insn 248217, accesses_since_last 131073, miss_sat 0, miss_rat 0.001173
smaller tournament 2 outcome, insn 255677, accesses 8193, hits 0,    config 6 -way
smaller tournament 3, insn 376013, accesses_since_last 131073, miss_sat 0, miss_rat 0.000774
smaller tournament 3 outcome, insn 383561, accesses 8193, hits 0,    config 5 -way
smaller tournament 4, insn 503953, accesses_since_last 131073, miss_sat 0, miss_rat 0.000578
smaller tournament 4 outcome, insn 511471, accesses 8193, hits 0,    config 4 -way
smaller tournament 5, insn 632223, accesses_since_last 131073, miss_sat 0, miss_rat 0.000461
smaller tournament 5 outcome, insn 639689, accesses 8193, hits 0,    config 3 -way
smaller tournament 6, insn 760348, accesses_since_last 131073, miss_sat 0, miss_rat 0.000383
smaller tournament 6 outcome, insn 761004, accesses 717, hits 2,    config 3 -way
smaller tournament 7, insn 881600, accesses_since_last 131073, miss_sat 0, miss_rat 0.000330
smaller tournament 7 outcome, insn 881604, accesses 6, hits 2,    config 3 -way
smaller tournament 8, insn 1002290, accesses_since_last 131073, miss_sat 0, miss_rat 0.000291
smaller tournament 8 outcome, insn 1004336, accesses 2160, hits 2,    config 3 -way
smaller tournament 9, insn 1125067, accesses_since_last 131073, miss_sat 0, miss_rat 0.000259
smaller tournament 9 outcome, insn 1126620, accesses 1607, hits 2,    config 3 -way
smaller tournament 10, insn 1247277, accesses_since_last 131073, miss_sat 0, miss_rat 0.000234
smaller tournament 10 outcome, insn 1248920, accesses 1730, hits 2,    config 3 -way
smaller tournament 11, insn 1369494, accesses_since_last 131073, miss_sat 0, miss_rat 0.000213
smaller tournament 11 outcome, insn 1370410, accesses 978, hits 2,    config 3 -way
smaller tournament 12, insn 1491033, accesses_since_last 131073, miss_sat 0, miss_rat 0.000196
smaller tournament 12 outcome, insn 1492023, accesses 1053, hits 2,    config 3 -way
smaller tournament 13, insn 1612605, accesses_since_last 131073, miss_sat 0, miss_rat 0.000181
smaller tournament 13 outcome, insn 1613345, accesses 803, hits 2,    config 3 -way
smaller tournament 14, insn 1733962, accesses_since_last 131073, miss_sat 0, miss_rat 0.000179
smaller tournament 14 outcome, insn 1735100, accesses 1220, hits 2,    config 3 -way
smaller tournament 15, insn 1855747, accesses_since_last 131073, miss_sat 0, miss_rat 0.000167
smaller tournament 15 outcome, insn 1856676, accesses 994, hits 2,    config 3 -way
smaller tournament 16, insn 1977295, accesses_since_last 131073, miss_sat 0, miss_rat 0.000157
smaller tournament 16 outcome, insn 1977587, accesses 345, hits 2,    config 3 -way
smaller tournament 17, insn 2097842, accesses_since_last 131073, miss_sat 0, miss_rat 0.000148
smaller tournament 17 outcome, insn 2099247, accesses 1503, hits 2,    config 3 -way
smaller tournament 18, insn 2219568, accesses_since_last 131073, miss_sat 0, miss_rat 0.000140
smaller tournament 18 outcome, insn 2220198, accesses 712, hits 2,    config 3 -way
smaller tournament 19, insn 2340907, accesses_since_last 131073, miss_sat 0, miss_rat 0.000132
smaller tournament 19 outcome, insn 2342456, accesses 1678, hits 2,    config 3 -way
smaller tournament 20, insn 2463068, accesses_since_last 131073, miss_sat 0, miss_rat 0.000126
smaller tournament 20 outcome, insn 2463569, accesses 580, hits 2,    config 3 -way
smaller tournament 21, insn 2584427, accesses_since_last 131073, miss_sat 0, miss_rat 0.000120
smaller tournament 21 outcome, insn 2584735, accesses 320, hits 2,    config 3 -way
smaller tournament 22, insn 2705475, accesses_since_last 131073, miss_sat 0, miss_rat 0.000115
smaller tournament 22 outcome, insn 2705736, accesses 270, hits 2,    config 3 -way
smaller tournament 23, insn 2826616, accesses_since_last 131073, miss_sat 0, miss_rat 0.000110
smaller tournament 23 outcome, insn 2827680, accesses 1141, hits 2,    config 3 -way
smaller tournament 24, insn 2948379, accesses_since_last 131073, miss_sat 0, miss_rat 0.000105
smaller tournament 24 outcome, insn 2948905, accesses 589, hits 2,    config 3 -way
smaller tournament 25, insn 3069559, accesses_since_last 131073, miss_sat 0, miss_rat 0.000101
smaller tournament 25 outcome, insn 3069880, accesses 347, hits 2,    config 3 -way
smaller tournament 26, insn 3190540, accesses_since_last 131073, miss_sat 0, miss_rat 0.000097
smaller tournament 26 outcome, insn 3191117, accesses 623, hits 2,    config 3 -way
smaller tournament 27, insn 3311942, accesses_since_last 131073, miss_sat 0, miss_rat 0.000094
smaller tournament 27 outcome, insn 3312360, accesses 481, hits 2,    config 3 -way
smaller tournament 28, insn 3433124, accesses_since_last 131073, miss_sat 0, miss_rat 0.000090
smaller tournament 28 outcome, insn 3433476, accesses 396, hits 2,    config 3 -way
smaller tournament 29, insn 3554016, accesses_since_last 131073, miss_sat 0, miss_rat 0.000087
smaller tournament 29 outcome, insn 3554174, accesses 157, hits 2,    config 3 -way
smaller tournament 30, insn 3674583, accesses_since_last 131073, miss_sat 0, miss_rat 0.000084
smaller tournament 30 outcome, insn 3675238, accesses 724, hits 2,    config 3 -way
smaller tournament 31, insn 3795912, accesses_since_last 131073, miss_sat 0, miss_rat 0.000082
smaller tournament 31 outcome, insn 3796508, accesses 674, hits 2,    config 3 -way
smaller tournament 32, insn 3917396, accesses_since_last 131073, miss_sat 0, miss_rat 0.000079
smaller tournament 32 outcome, insn 3918257, accesses 926, hits 2,    config 3 -way
smaller tournament 33, insn 4038856, accesses_since_last 131073, miss_sat 0, miss_rat 0.000077
smaller tournament 33 outcome, insn 4038938, accesses 102, hits 2,    config 3 -way
smaller tournament 34, insn 4159620, accesses_since_last 131073, miss_sat 0, miss_rat 0.000075
smaller tournament 34 outcome, insn 4161242, accesses 1721, hits 2,    config 3 -way
smaller tournament 35, insn 4281844, accesses_since_last 131073, miss_sat 0, miss_rat 0.000072
smaller tournament 35 outcome, insn 4282187, accesses 387, hits 2,    config 3 -way
smaller tournament 36, insn 4402768, accesses_since_last 131073, miss_sat 0, miss_rat 0.000070
smaller tournament 36 outcome, insn 4402923, accesses 164, hits 2,    config 3 -way
smaller tournament 37, insn 4523438, accesses_since_last 131073, miss_sat 0, miss_rat 0.000069
smaller tournament 37 outcome, insn 4524876, accesses 1525, hits 2,    config 3 -way
smaller tournament 38, insn 4645690, accesses_since_last 131073, miss_sat 0, miss_rat 0.000067
smaller tournament 38 outcome, insn 4647128, accesses 1524, hits 2,    config 3 -way
smaller tournament 39, insn 4767856, accesses_since_last 131073, miss_sat 0, miss_rat 0.000065
smaller tournament 39 outcome, insn 4768302, accesses 512, hits 2,    config 3 -way
smaller tournament 40, insn 4889068, accesses_since_last 131073, miss_sat 0, miss_rat 0.000064
smaller tournament 40 outcome, insn 4890438, accesses 1457, hits 2,    config 3 -way
smaller tournament 41, insn 5011111, accesses_since_last 131073, miss_sat 0, miss_rat 0.000062
smaller tournament 41 outcome, insn 5012231, accesses 1239, hits 2,    config 3 -way
smaller tournament 42, insn 5132943, accesses_since_last 131073, miss_sat 0, miss_rat 0.000061
smaller tournament 42 outcome, insn 5133885, accesses 1045, hits 2,    config 3 -way
smaller tournament 43, insn 5254604, accesses_since_last 131073, miss_sat 0, miss_rat 0.000059
smaller tournament 43 outcome, insn 5255499, accesses 979, hits 2,    config 3 -way
smaller tournament 44, insn 5376237, accesses_since_last 131073, miss_sat 0, miss_rat 0.000058
smaller tournament 44 outcome, insn 5377168, accesses 1034, hits 2,    config 3 -way
smaller tournament 45, insn 5498010, accesses_since_last 131073, miss_sat 0, miss_rat 0.000057
smaller tournament 45 outcome, insn 5498167, accesses 205, hits 2,    config 3 -way
smaller tournament 46, insn 5618913, accesses_since_last 131073, miss_sat 0, miss_rat 0.000055
smaller tournament 46 outcome, insn 5619640, accesses 784, hits 2,    config 3 -way
smaller tournament 47, insn 5740263, accesses_since_last 131073, miss_sat 0, miss_rat 0.000054
smaller tournament 47 outcome, insn 5741292, accesses 1109, hits 2,    config 3 -way
smaller tournament 48, insn 5862035, accesses_since_last 131073, miss_sat 0, miss_rat 0.000053
smaller tournament 48 outcome, insn 5862186, accesses 195, hits 2,    config 3 -way
smaller tournament 49, insn 5982856, accesses_since_last 131073, miss_sat 0, miss_rat 0.000052
smaller tournament 49 outcome, insn 5983531, accesses 737, hits 2,    config 3 -way
smaller tournament 50, insn 6104354, accesses_since_last 131073, miss_sat 0, miss_rat 0.000051
smaller tournament 50 outcome, insn 6105981, accesses 1696, hits 2,    config 3 -way
smaller tournament 51, insn 6226850, accesses_since_last 131073, miss_sat 0, miss_rat 0.000050
smaller tournament 51 outcome, insn 6227608, accesses 836, hits 2,    config 3 -way
smaller tournament 52, insn 6348251, accesses_since_last 131073, miss_sat 0, miss_rat 0.000049
smaller tournament 52 outcome, insn 6349883, accesses 1731, hits 2,    config 3 -way
smaller tournament 53, insn 6470537, accesses_since_last 131073, miss_sat 0, miss_rat 0.000048
smaller tournament 53 outcome, insn 6471051, accesses 578, hits 2,    config 3 -way
smaller tournament 54, insn 6591722, accesses_since_last 131073, miss_sat 0, miss_rat 0.000047
smaller tournament 54 outcome, insn 6591947, accesses 269, hits 2,    config 3 -way
smaller tournament 55, insn 6712553, accesses_since_last 131073, miss_sat 0, miss_rat 0.000046
smaller tournament 55 outcome, insn 6713583, accesses 1092, hits 2,    config 3 -way
smaller tournament 56, insn 6834198, accesses_since_last 131073, miss_sat 0, miss_rat 0.000046
smaller tournament 56 outcome, insn 6834212, accesses 14, hits 2,    config 3 -way
smaller tournament 57, insn 6954893, accesses_since_last 131073, miss_sat 0, miss_rat 0.000045
smaller tournament 57 outcome, insn 6956179, accesses 1367, hits 2,    config 3 -way
smaller tournament 58, insn 7076793, accesses_since_last 131073, miss_sat 0, miss_rat 0.000044
smaller tournament 58 outcome, insn 7078756, accesses 2070, hits 2,    config 3 -way
smaller tournament 59, insn 7199379, accesses_since_last 131073, miss_sat 0, miss_rat 0.000043
smaller tournament 59 outcome, insn 7201063, accesses 1754, hits 2,    config 3 -way
smaller tournament 60, insn 7321680, accesses_since_last 131073, miss_sat 0, miss_rat 0.000042
smaller tournament 60 outcome, insn 7322916, accesses 1318, hits 2,    config 3 -way
smaller tournament 61, insn 7443510, accesses_since_last 131073, miss_sat 0, miss_rat 0.000042
smaller tournament 61 outcome, insn 7443536, accesses 25, hits 2,    config 3 -way
smaller tournament 62, insn 7563993, accesses_since_last 131073, miss_sat 0, miss_rat 0.000041
smaller tournament 62 outcome, insn 7564699, accesses 783, hits 2,    config 3 -way
smaller tournament 63, insn 7685142, accesses_since_last 131073, miss_sat 0, miss_rat 0.000040
smaller tournament 63 outcome, insn 7685911, accesses 826, hits 2,    config 3 -way
smaller tournament 64, insn 7806650, accesses_since_last 131073, miss_sat 0, miss_rat 0.000040
smaller tournament 64 outcome, insn 7808525, accesses 1970, hits 2,    config 3 -way
smaller tournament 65, insn 7929100, accesses_since_last 131073, miss_sat 0, miss_rat 0.000039
smaller tournament 65 outcome, insn 7929112, accesses 13, hits 2,    config 3 -way
smaller tournament 66, insn 8049901, accesses_since_last 131073, miss_sat 0, miss_rat 0.000039
smaller tournament 66 outcome, insn 8051495, accesses 1693, hits 2,    config 3 -way
smaller tournament 67, insn 8172215, accesses_since_last 131073, miss_sat 0, miss_rat 0.000038
smaller tournament 67 outcome, insn 8172489, accesses 319, hits 2,    config 3 -way
smaller tournament 68, insn 8293273, accesses_since_last 131073, miss_sat 0, miss_rat 0.000038
smaller tournament 68 outcome, insn 8294824, accesses 1603, hits 2,    config 3 -way
smaller tournament 69, insn 8415492, accesses_since_last 131073, miss_sat 0, miss_rat 0.000037
smaller tournament 69 outcome, insn 8417129, accesses 1725, hits 2,    config 3 -way
smaller tournament 70, insn 8537740, accesses_since_last 131073, miss_sat 0, miss_rat 0.000036
smaller tournament 70 outcome, insn 8539463, accesses 1796, hits 2,    config 3 -way
smaller tournament 71, insn 8660198, accesses_since_last 131073, miss_sat 0, miss_rat 0.000036
smaller tournament 71 outcome, insn 8661338, accesses 1223, hits 2,    config 3 -way
smaller tournament 72, insn 8782020, accesses_since_last 131073, miss_sat 0, miss_rat 0.000035
smaller tournament 72 outcome, insn 8782312, accesses 354, hits 2,    config 3 -way
smaller tournament 73, insn 8902925, accesses_since_last 131073, miss_sat 0, miss_rat 0.000035
smaller tournament 73 outcome, insn 8904110, accesses 1266, hits 2,    config 3 -way
smaller tournament 74, insn 9024496, accesses_since_last 131073, miss_sat 0, miss_rat 0.000034
smaller tournament 74 outcome, insn 9026121, accesses 1698, hits 2,    config 3 -way
smaller tournament 75, insn 9146476, accesses_since_last 131073, miss_sat 0, miss_rat 0.000034
smaller tournament 75 outcome, insn 9147338, accesses 962, hits 2,    config 3 -way
smaller tournament 76, insn 9267908, accesses_since_last 131073, miss_sat 0, miss_rat 0.000034
smaller tournament 76 outcome, insn 9268603, accesses 705, hits 2,    config 3 -way
smaller tournament 77, insn 9389086, accesses_since_last 131073, miss_sat 0, miss_rat 0.000033
smaller tournament 77 outcome, insn 9390893, accesses 1879, hits 2,    config 3 -way
smaller tournament 78, insn 9511396, accesses_since_last 131073, miss_sat 0, miss_rat 0.000033
smaller tournament 78 outcome, insn 9512784, accesses 1470, hits 2,    config 3 -way
smaller tournament 79, insn 9633130, accesses_since_last 131073, miss_sat 0, miss_rat 0.000032
smaller tournament 79 outcome, insn 9633792, accesses 695, hits 2,    config 3 -way
smaller tournament 80, insn 9754434, accesses_since_last 131073, miss_sat 0, miss_rat 0.000032
smaller tournament 80 outcome, insn 9755933, accesses 1562, hits 2,    config 3 -way
smaller tournament 81, insn 9876701, accesses_since_last 131073, miss_sat 0, miss_rat 0.000031
smaller tournament 81 outcome, insn 9877546, accesses 927, hits 2,    config 3 -way
smaller tournament 82, insn 9998230, accesses_since_last 131073, miss_sat 0, miss_rat 0.000031
smaller tournament 82 outcome, insn 9998971, accesses 804, hits 2,    config 3 -way
smaller tournament 83, insn 10119641, accesses_since_last 131073, miss_sat 0, miss_rat 0.000031
smaller tournament 83 outcome, insn 10119734, accesses 103, hits 2,    config 3 -way
smaller tournament 84, insn 10240309, accesses_since_last 131073, miss_sat 0, miss_rat 0.000030
smaller tournament 84 outcome, insn 10240813, accesses 566, hits 2,    config 3 -way
smaller tournament 85, insn 10361074, accesses_since_last 131073, miss_sat 0, miss_rat 0.000030
smaller tournament 85 outcome, insn 10361759, accesses 758, hits 2,    config 3 -way
smaller tournament 86, insn 10482434, accesses_since_last 131073, miss_sat 0, miss_rat 0.000030
smaller tournament 86 outcome, insn 10484067, accesses 1738, hits 2,    config 3 -way
smaller tournament 87, insn 10604771, accesses_since_last 131073, miss_sat 0, miss_rat 0.000030
smaller tournament 87 outcome, insn 10605711, accesses 1017, hits 2,    config 3 -way
smaller tournament 88, insn 10726362, accesses_since_last 131073, miss_sat 0, miss_rat 0.000029
smaller tournament 88 outcome, insn 10727114, accesses 827, hits 2,    config 3 -way
smaller tournament 89, insn 10847837, accesses_since_last 131073, miss_sat 0, miss_rat 0.000029
smaller tournament 89 outcome, insn 10848867, accesses 1107, hits 2,    config 3 -way
smaller tournament 90, insn 10969131, accesses_since_last 131073, miss_sat 0, miss_rat 0.000029
smaller tournament 90 outcome, insn 10970415, accesses 1388, hits 2,    config 3 -way
smaller tournament 91, insn 11090551, accesses_since_last 131073, miss_sat 0, miss_rat 0.000028
smaller tournament 91 outcome, insn 11091330, accesses 837, hits 2,    config 3 -way
smaller tournament 92, insn 11211975, accesses_since_last 131073, miss_sat 0, miss_rat 0.000028
smaller tournament 92 outcome, insn 11212477, accesses 519, hits 2,    config 3 -way
smaller tournament 93, insn 11332649, accesses_since_last 131073, miss_sat 0, miss_rat 0.000028
smaller tournament 93 outcome, insn 11333346, accesses 792, hits 2,    config 3 -way
smaller tournament 94, insn 11453742, accesses_since_last 131073, miss_sat 0, miss_rat 0.000027
smaller tournament 94 outcome, insn 11455183, accesses 1551, hits 2,    config 3 -way
smaller tournament 95, insn 11575498, accesses_since_last 131073, miss_sat 0, miss_rat 0.000027
smaller tournament 95 outcome, insn 11575899, accesses 446, hits 2,    config 3 -way
smaller tournament 96, insn 11696129, accesses_since_last 131073, miss_sat 0, miss_rat 0.000027
smaller tournament 96 outcome, insn 11697055, accesses 985, hits 2,    config 3 -way
smaller tournament 97, insn 11817419, accesses_since_last 131073, miss_sat 0, miss_rat 0.000026
smaller tournament 97 outcome, insn 11817958, accesses 598, hits 2,    config 3 -way
smaller tournament 98, insn 11938749, accesses_since_last 131073, miss_sat 0, miss_rat 0.000026
smaller tournament 98 outcome, insn 11939121, accesses 419, hits 2,    config 3 -way
smaller tournament 99, insn 12059870, accesses_since_last 131073, miss_sat 0, miss_rat 0.000026
smaller tournament 99 outcome, insn 12061797, accesses 2052, hits 2,    config 3 -way
smaller tournament 100, insn 12182530, accesses_since_last 131073, miss_sat 0, miss_rat 0.000026
smaller tournament 100 outcome, insn 12183725, accesses 1278, hits 2,    config 3 -way
smaller tournament 101, insn 12304397, accesses_since_last 131073, miss_sat 0, miss_rat 0.000025
smaller tournament 101 outcome, insn 12306027, accesses 1728, hits 2,    config 3 -way
smaller tournament 102, insn 12426778, accesses_since_last 131073, miss_sat 0, miss_rat 0.000025
smaller tournament 102 outcome, insn 12427956, accesses 1268, hits 2,    config 3 -way
smaller tournament 103, insn 12548598, accesses_since_last 131073, miss_sat 0, miss_rat 0.000025
smaller tournament 103 outcome, insn 12549569, accesses 1045, hits 2,    config 3 -way
smaller tournament 104, insn 12670248, accesses_since_last 131073, miss_sat 0, miss_rat 0.000025
smaller tournament 104 outcome, insn 12671362, accesses 1211, hits 2,    config 3 -way
smaller tournament 105, insn 12791909, accesses_since_last 131073, miss_sat 0, miss_rat 0.000024
smaller tournament 105 outcome, insn 12793886, accesses 2087, hits 2,    config 3 -way
smaller tournament 106, insn 12914538, accesses_since_last 131073, miss_sat 0, miss_rat 0.000024
smaller tournament 106 outcome, insn 12914979, accesses 506, hits 2,    config 3 -way
smaller tournament 107, insn 13035646, accesses_since_last 131073, miss_sat 0, miss_rat 0.000024
smaller tournament 107 outcome, insn 13036772, accesses 1196, hits 2,    config 3 -way
smaller tournament 108, insn 13157283, accesses_since_last 131073, miss_sat 0, miss_rat 0.000024
smaller tournament 108 outcome, insn 13158136, accesses 871, hits 2,    config 3 -way
smaller tournament 109, insn 13278518, accesses_since_last 131073, miss_sat 0, miss_rat 0.000024
smaller tournament 109 outcome, insn 13278657, accesses 184, hits 2,    config 3 -way
smaller tournament 110, insn 13399445, accesses_since_last 131073, miss_sat 0, miss_rat 0.000023
smaller tournament 110 outcome, insn 13400822, accesses 1468, hits 2,    config 3 -way
smaller tournament 111, insn 13521591, accesses_since_last 131073, miss_sat 0, miss_rat 0.000023
smaller tournament 111 outcome, insn 13523473, accesses 1955, hits 2,    config 3 -way
smaller tournament 112, insn 13644011, accesses_since_last 131073, miss_sat 0, miss_rat 0.000023
smaller tournament 112 outcome, insn 13644067, accesses 57, hits 2,    config 3 -way
smaller tournament 113, insn 13764749, accesses_since_last 131073, miss_sat 0, miss_rat 0.000023
smaller tournament 113 outcome, insn 13764988, accesses 267, hits 2,    config 3 -way
smaller tournament 114, insn 13885768, accesses_since_last 131073, miss_sat 0, miss_rat 0.000023
smaller tournament 114 outcome, insn 13886450, accesses 744, hits 2,    config 3 -way
smaller tournament 115, insn 14007149, accesses_since_last 131073, miss_sat 0, miss_rat 0.000022
smaller tournament 115 outcome, insn 14008233, accesses 1147, hits 2,    config 3 -way
smaller tournament 116, insn 14128918, accesses_since_last 131073, miss_sat 0, miss_rat 0.000022
smaller tournament 116 outcome, insn 14130552, accesses 1745, hits 2,    config 3 -way
smaller tournament 117, insn 14251107, accesses_since_last 131073, miss_sat 0, miss_rat 0.000022
smaller tournament 117 outcome, insn 14252616, accesses 1592, hits 2,    config 3 -way
smaller tournament 118, insn 14373336, accesses_since_last 131073, miss_sat 0, miss_rat 0.000022
smaller tournament 118 outcome, insn 14374280, accesses 1008, hits 2,    config 3 -way
smaller tournament 119, insn 14494890, accesses_since_last 131073, miss_sat 0, miss_rat 0.000022
smaller tournament 119 outcome, insn 14496402, accesses 1574, hits 2,    config 3 -way
smaller tournament 120, insn 14617175, accesses_since_last 131073, miss_sat 0, miss_rat 0.000021
smaller tournament 120 outcome, insn 14617732, accesses 620, hits 2,    config 3 -way
smaller tournament 121, insn 14738384, accesses_since_last 131073, miss_sat 0, miss_rat 0.000021
smaller tournament 121 outcome, insn 14740252, accesses 1967, hits 2,    config 3 -way
smaller tournament 122, insn 14860705, accesses_since_last 131073, miss_sat 0, miss_rat 0.000021
smaller tournament 122 outcome, insn 14861366, accesses 706, hits 2,    config 3 -way
smaller tournament 123, insn 14982043, accesses_since_last 131073, miss_sat 0, miss_rat 0.000021
smaller tournament 123 outcome, insn 14982655, accesses 657, hits 2,    config 3 -way
smaller tournament 124, insn 15103496, accesses_since_last 131073, miss_sat 0, miss_rat 0.000021
smaller tournament 124 outcome, insn 15104330, accesses 899, hits 2,    config 3 -way
smaller tournament 125, insn 15225164, accesses_since_last 131073, miss_sat 0, miss_rat 0.000021
smaller tournament 125 outcome, insn 15226521, accesses 1440, hits 2,    config 3 -way
smaller tournament 126, insn 15347336, accesses_since_last 131073, miss_sat 0, miss_rat 0.000020
smaller tournament 126 outcome, insn 15349207, accesses 1943, hits 2,    config 3 -way
smaller tournament 127, insn 15470016, accesses_since_last 131073, miss_sat 0, miss_rat 0.000020
smaller tournament 127 outcome, insn 15471518, accesses 1594, hits 2,    config 3 -way
smaller tournament 128, insn 15592262, accesses_since_last 131073, miss_sat 0, miss_rat 0.000020
smaller tournament 128 outcome, insn 15593096, accesses 909, hits 2,    config 3 -way
smaller tournament 129, insn 15713846, accesses_since_last 131073, miss_sat 0, miss_rat 0.000020
smaller tournament 129 outcome, insn 15715363, accesses 1599, hits 2,    config 3 -way
smaller tournament 130, insn 15836069, accesses_since_last 131073, miss_sat 0, miss_rat 0.000020
smaller tournament 130 outcome, insn 15836153, accesses 130, hits 2,    config 3 -way
smaller tournament 131, insn 15956893, accesses_since_last 131073, miss_sat 0, miss_rat 0.000020
smaller tournament 131 outcome, insn 15956986, accesses 112, hits 2,    config 3 -way
smaller tournament 132, insn 16077605, accesses_since_last 131073, miss_sat 0, miss_rat 0.000019
smaller tournament 132 outcome, insn 16077694, accesses 108, hits 2,    config 3 -way
smaller tournament 133, insn 16198447, accesses_since_last 131073, miss_sat 0, miss_rat 0.000019
smaller tournament 133 outcome, insn 16199110, accesses 726, hits 2,    config 3 -way
smaller tournament 134, insn 16319895, accesses_since_last 131073, miss_sat 0, miss_rat 0.000019
smaller tournament 134 outcome, insn 16320768, accesses 961, hits 2,    config 3 -way
smaller tournament 135, insn 16441324, accesses_since_last 131073, miss_sat 0, miss_rat 0.000019
smaller tournament 135 outcome, insn 16443370, accesses 2144, hits 2,    config 3 -way
smaller tournament 136, insn 16563957, accesses_since_last 131073, miss_sat 0, miss_rat 0.000019
smaller tournament 136 outcome, insn 16565902, accesses 2044, hits 2,    config 3 -way
smaller tournament 137, insn 16686589, accesses_since_last 131073, miss_sat 0, miss_rat 0.000019
smaller tournament 137 outcome, insn 16688543, accesses 2064, hits 2,    config 3 -way
smaller tournament 138, insn 16809110, accesses_since_last 131073, miss_sat 0, miss_rat 0.000019
smaller tournament 138 outcome, insn 16809462, accesses 417, hits 2,    config 3 -way
smaller tournament 139, insn 16930144, accesses_since_last 131073, miss_sat 0, miss_rat 0.000018
smaller tournament 139 outcome, insn 16930738, accesses 641, hits 2,    config 3 -way
smaller tournament 140, insn 17051539, accesses_since_last 131073, miss_sat 0, miss_rat 0.000018
smaller tournament 140 outcome, insn 17052349, accesses 888, hits 2,    config 3 -way
smaller tournament 141, insn 17173000, accesses_since_last 131073, miss_sat 0, miss_rat 0.000018
smaller tournament 141 outcome, insn 17174140, accesses 1223, hits 2,    config 3 -way
smaller tournament 142, insn 17294713, accesses_since_last 131073, miss_sat 0, miss_rat 0.000018
smaller tournament 142 outcome, insn 17296121, accesses 1490, hits 2,    config 3 -way
smaller tournament 143, insn 17416819, accesses_since_last 131073, miss_sat 0, miss_rat 0.000018
smaller tournament 143 outcome, insn 17418357, accesses 1602, hits 2,    config 3 -way
smaller tournament 144, insn 17539020, accesses_since_last 131073, miss_sat 0, miss_rat 0.000018
smaller tournament 144 outcome, insn 17540113, accesses 1173, hits 2,    config 3 -way
smaller tournament 145, insn 17660837, accesses_since_last 131073, miss_sat 0, miss_rat 0.000018
smaller tournament 145 outcome, insn 17662061, accesses 1305, hits 2,    config 3 -way
smaller tournament 146, insn 17782793, accesses_since_last 131073, miss_sat 0, miss_rat 0.000018
smaller tournament 146 outcome, insn 17784338, accesses 1625, hits 2,    config 3 -way
smaller tournament 147, insn 17904967, accesses_since_last 131073, miss_sat 0, miss_rat 0.000017
smaller tournament 147 outcome, insn 17905981, accesses 1079, hits 2,    config 3 -way
smaller tournament 148, insn 18026638, accesses_since_last 131073, miss_sat 0, miss_rat 0.000017
smaller tournament 148 outcome, insn 18028133, accesses 1591, hits 2,    config 3 -way
smaller tournament 149, insn 18148814, accesses_since_last 131073, miss_sat 0, miss_rat 0.000017
smaller tournament 149 outcome, insn 18149777, accesses 1082, hits 2,    config 3 -way
smaller tournament 150, insn 18270414, accesses_since_last 131073, miss_sat 0, miss_rat 0.000017
smaller tournament 150 outcome, insn 18271031, accesses 679, hits 2,    config 3 -way
smaller tournament 151, insn 18391566, accesses_since_last 131073, miss_sat 0, miss_rat 0.000017
smaller tournament 151 outcome, insn 18391602, accesses 36, hits 2,    config 3 -way
smaller tournament 152, insn 18512508, accesses_since_last 131073, miss_sat 0, miss_rat 0.000017
smaller tournament 152 outcome, insn 18512818, accesses 369, hits 2,    config 3 -way
smaller tournament 153, insn 18633650, accesses_since_last 131073, miss_sat 0, miss_rat 0.000017
smaller tournament 153 outcome, insn 18635160, accesses 1609, hits 2,    config 3 -way
smaller tournament 154, insn 18756047, accesses_since_last 131073, miss_sat 0, miss_rat 0.000017
smaller tournament 154 outcome, insn 18756665, accesses 663, hits 2,    config 3 -way
smaller tournament 155, insn 18877382, accesses_since_last 131073, miss_sat 0, miss_rat 0.000017
smaller tournament 155 outcome, insn 18878155, accesses 852, hits 2,    config 3 -way
smaller tournament 156, insn 18998711, accesses_since_last 131073, miss_sat 0, miss_rat 0.000016
smaller tournament 156 outcome, insn 18999266, accesses 617, hits 2,    config 3 -way
smaller tournament 157, insn 19119886, accesses_since_last 131073, miss_sat 0, miss_rat 0.000016
smaller tournament 157 outcome, insn 19120939, accesses 1129, hits 2,    config 3 -way
smaller tournament 158, insn 19241612, accesses_since_last 131073, miss_sat 0, miss_rat 0.000016
smaller tournament 158 outcome, insn 19242898, accesses 1377, hits 2,    config 3 -way
smaller tournament 159, insn 19363410, accesses_since_last 131073, miss_sat 0, miss_rat 0.000016
smaller tournament 159 outcome, insn 19364860, accesses 1532, hits 2,    config 3 -way
smaller tournament 160, insn 19485494, accesses_since_last 131073, miss_sat 0, miss_rat 0.000016
smaller tournament 160 outcome, insn 19486869, accesses 1451, hits 2,    config 3 -way
smaller tournament 161, insn 19607521, accesses_since_last 131073, miss_sat 0, miss_rat 0.000016
smaller tournament 161 outcome, insn 19607663, accesses 179, hits 2,    config 3 -way
smaller tournament 162, insn 19728235, accesses_since_last 131073, miss_sat 0, miss_rat 0.000016
smaller tournament 162 outcome, insn 19729104, accesses 932, hits 2,    config 3 -way
smaller tournament 163, insn 19849692, accesses_since_last 131073, miss_sat 0, miss_rat 0.000016
smaller tournament 163 outcome, insn 19849734, accesses 52, hits 2,    config 3 -way
smaller tournament 164, insn 19970201, accesses_since_last 131073, miss_sat 0, miss_rat 0.000016
smaller tournament 164 outcome, insn 19971110, accesses 1017, hits 2,    config 3 -way
smaller tournament 165, insn 20091540, accesses_since_last 131073, miss_sat 0, miss_rat 0.000016
smaller tournament 165 outcome, insn 20091762, accesses 240, hits 2,    config 3 -way
smaller tournament 166, insn 20212474, accesses_since_last 131073, miss_sat 0, miss_rat 0.000015
smaller tournament 166 outcome, insn 20212561, accesses 89, hits 2,    config 3 -way
smaller tournament 167, insn 20333317, accesses_since_last 131073, miss_sat 0, miss_rat 0.000015
smaller tournament 167 outcome, insn 20333484, accesses 174, hits 2,    config 3 -way
smaller tournament 168, insn 20454350, accesses_since_last 131073, miss_sat 0, miss_rat 0.000015
smaller tournament 168 outcome, insn 20455227, accesses 962, hits 2,    config 3 -way
smaller tournament 169, insn 20576113, accesses_since_last 131073, miss_sat 0, miss_rat 0.000015
smaller tournament 169 outcome, insn 20576225, accesses 110, hits 2,    config 3 -way
smaller tournament 170, insn 20696796, accesses_since_last 131073, miss_sat 0, miss_rat 0.000015
smaller tournament 170 outcome, insn 20697888, accesses 1156, hits 2,    config 3 -way
smaller tournament 171, insn 20818451, accesses_since_last 131073, miss_sat 0, miss_rat 0.000015
smaller tournament 171 outcome, insn 20819850, accesses 1479, hits 2,    config 3 -way
smaller tournament 172, insn 20940459, accesses_since_last 131073, miss_sat 0, miss_rat 0.000015
smaller tournament 172 outcome, insn 20941967, accesses 1562, hits 2,    config 3 -way
smaller tournament 173, insn 21062694, accesses_since_last 131073, miss_sat 0, miss_rat 0.000015
smaller tournament 173 outcome, insn 21063679, accesses 1077, hits 2,    config 3 -way
smaller tournament 174, insn 21184304, accesses_since_last 131073, miss_sat 0, miss_rat 0.000015
smaller tournament 174 outcome, insn 21185507, accesses 1290, hits 2,    config 3 -way
smaller tournament 175, insn 21306218, accesses_since_last 131073, miss_sat 0, miss_rat 0.000015
smaller tournament 175 outcome, insn 21306890, accesses 773, hits 2,    config 3 -way
smaller tournament 176, insn 21427620, accesses_since_last 131073, miss_sat 0, miss_rat 0.000015
smaller tournament 176 outcome, insn 21427879, accesses 275, hits 2,    config 3 -way
smaller tournament 177, insn 21548661, accesses_since_last 131073, miss_sat 0, miss_rat 0.000015
smaller tournament 177 outcome, insn 21549657, accesses 1107, hits 2,    config 3 -way
smaller tournament 178, insn 21670162, accesses_since_last 131073, miss_sat 0, miss_rat 0.000014
smaller tournament 178 outcome, insn 21670327, accesses 179, hits 2,    config 3 -way
smaller tournament 179, insn 21790978, accesses_since_last 131073, miss_sat 0, miss_rat 0.000014
smaller tournament 179 outcome, insn 21791326, accesses 375, hits 2,    config 3 -way
smaller tournament 180, insn 21911726, accesses_since_last 131073, miss_sat 0, miss_rat 0.000014
smaller tournament 180 outcome, insn 21913213, accesses 1582, hits 2,    config 3 -way
smaller tournament 181, insn 22033732, accesses_since_last 131073, miss_sat 0, miss_rat 0.000014
smaller tournament 181 outcome, insn 22033857, accesses 125, hits 2,    config 3 -way
smaller tournament 182, insn 22154310, accesses_since_last 131073, miss_sat 0, miss_rat 0.000014
smaller tournament 182 outcome, insn 22154809, accesses 526, hits 2,    config 3 -way
smaller tournament 183, insn 22275655, accesses_since_last 131073, miss_sat 0, miss_rat 0.000014
smaller tournament 183 outcome, insn 22275935, accesses 306, hits 2,    config 3 -way
smaller tournament 184, insn 22396820, accesses_since_last 131073, miss_sat 0, miss_rat 0.000014
smaller tournament 184 outcome, insn 22398422, accesses 1689, hits 2,    config 3 -way
smaller tournament 185, insn 22518953, accesses_since_last 131073, miss_sat 0, miss_rat 0.000014
smaller tournament 185 outcome, insn 22519257, accesses 349, hits 2,    config 3 -way
smaller tournament 186, insn 22639785, accesses_since_last 131073, miss_sat 0, miss_rat 0.000014
smaller tournament 186 outcome, insn 22639883, accesses 100, hits 2,    config 3 -way
smaller tournament 187, insn 22760634, accesses_since_last 131073, miss_sat 0, miss_rat 0.000014
smaller tournament 187 outcome, insn 22761171, accesses 564, hits 2,    config 3 -way
smaller tournament 188, insn 22881610, accesses_since_last 131073, miss_sat 0, miss_rat 0.000014
smaller tournament 188 outcome, insn 22882292, accesses 739, hits 2,    config 3 -way
smaller tournament 189, insn 23002657, accesses_since_last 131073, miss_sat 0, miss_rat 0.000014
smaller tournament 189 outcome, insn 23004144, accesses 1575, hits 2,    config 3 -way
smaller tournament 190, insn 23124916, accesses_since_last 131073, miss_sat 0, miss_rat 0.000014
smaller tournament 190 outcome, insn 23125022, accesses 154, hits 2,    config 3 -way
smaller tournament 191, insn 23245477, accesses_since_last 131073, miss_sat 0, miss_rat 0.000013
smaller tournament 191 outcome, insn 23245679, accesses 213, hits 2,    config 3 -way
smaller tournament 192, insn 23365918, accesses_since_last 131073, miss_sat 0, miss_rat 0.000013
smaller tournament 192 outcome, insn 23366865, accesses 1019, hits 2,    config 3 -way
smaller tournament 193, insn 23487002, accesses_since_last 131073, miss_sat 0, miss_rat 0.000013
smaller tournament 193 outcome, insn 23487036, accesses 34, hits 2,    config 3 -way
smaller tournament 194, insn 23607738, accesses_since_last 131073, miss_sat 0, miss_rat 0.000013
smaller tournament 194 outcome, insn 23607993, accesses 311, hits 2,    config 3 -way
smaller tournament 195, insn 23728192, accesses_since_last 131073, miss_sat 0, miss_rat 0.000013
smaller tournament 195 outcome, insn 23729860, accesses 1791, hits 2,    config 3 -way
smaller tournament 196, insn 23850064, accesses_since_last 131073, miss_sat 0, miss_rat 0.000013
smaller tournament 196 outcome, insn 23851296, accesses 1315, hits 2,    config 3 -way
smaller tournament 197, insn 23971937, accesses_since_last 131073, miss_sat 0, miss_rat 0.000013
smaller tournament 197 outcome, insn 23972301, accesses 409, hits 2,    config 3 -way
smaller tournament 198, insn 24092282, accesses_since_last 131073, miss_sat 0, miss_rat 0.000013
smaller tournament 198 outcome, insn 24092324, accesses 52, hits 2,    config 3 -way
smaller tournament 199, insn 24212468, accesses_since_last 131073, miss_sat 0, miss_rat 0.000013
smaller tournament 199 outcome, insn 24212506, accesses 36, hits 2,    config 3 -way
smaller tournament 200, insn 24332979, accesses_since_last 131073, miss_sat 0, miss_rat 0.000013
smaller tournament 200 outcome, insn 24333591, accesses 689, hits 2,    config 3 -way
smaller tournament 201, insn 24454324, accesses_since_last 131073, miss_sat 0, miss_rat 0.000013
smaller tournament 201 outcome, insn 24454395, accesses 72, hits 2,    config 3 -way
smaller tournament 202, insn 24574947, accesses_since_last 131073, miss_sat 0, miss_rat 0.000013
smaller tournament 202 outcome, insn 24575497, accesses 580, hits 2,    config 3 -way
smaller tournament 203, insn 24696074, accesses_since_last 131073, miss_sat 0, miss_rat 0.000013
smaller tournament 203 outcome, insn 24696226, accesses 152, hits 2,    config 3 -way
smaller tournament 204, insn 24816847, accesses_since_last 131073, miss_sat 0, miss_rat 0.000013
smaller tournament 204 outcome, insn 24817128, accesses 323, hits 2,    config 3 -way
smaller tournament 205, insn 24937740, accesses_since_last 131073, miss_sat 0, miss_rat 0.000013
smaller tournament 205 outcome, insn 24938043, accesses 335, hits 2,    config 3 -way
smaller tournament 206, insn 25058574, accesses_since_last 131073, miss_sat 0, miss_rat 0.000012
smaller tournament 206 outcome, insn 25060577, accesses 2086, hits 2,    config 3 -way
smaller tournament 207, insn 25181261, accesses_since_last 131073, miss_sat 0, miss_rat 0.000012
smaller tournament 207 outcome, insn 25181946, accesses 757, hits 2,    config 3 -way
smaller tournament 208, insn 25302425, accesses_since_last 131073, miss_sat 0, miss_rat 0.000012
smaller tournament 208 outcome, insn 25302748, accesses 368, hits 2,    config 3 -way
smaller tournament 209, insn 25423094, accesses_since_last 131073, miss_sat 0, miss_rat 0.000012
smaller tournament 209 outcome, insn 25423113, accesses 18, hits 2,    config 3 -way
smaller tournament 210, insn 25543507, accesses_since_last 131073, miss_sat 0, miss_rat 0.000012
smaller tournament 210 outcome, insn 25543764, accesses 301, hits 2,    config 3 -way
smaller tournament 211, insn 25664292, accesses_since_last 131073, miss_sat 0, miss_rat 0.000012
smaller tournament 211 outcome, insn 25664331, accesses 39, hits 2,    config 3 -way
smaller tournament 212, insn 25785132, accesses_since_last 131073, miss_sat 0, miss_rat 0.000012
smaller tournament 212 outcome, insn 25785653, accesses 594, hits 2,    config 3 -way
smaller tournament 213, insn 25906110, accesses_since_last 131073, miss_sat 0, miss_rat 0.000012
smaller tournament 213 outcome, insn 25906670, accesses 623, hits 2,    config 3 -way
smaller tournament 214, insn 26027270, accesses_since_last 131073, miss_sat 0, miss_rat 0.000012
smaller tournament 214 outcome, insn 26028430, accesses 1249, hits 2,    config 3 -way
smaller tournament 215, insn 26149087, accesses_since_last 131073, miss_sat 0, miss_rat 0.000012
smaller tournament 215 outcome, insn 26149313, accesses 274, hits 2,    config 3 -way
smaller tournament 216, insn 26269930, accesses_since_last 131073, miss_sat 0, miss_rat 0.000012
smaller tournament 216 outcome, insn 26270563, accesses 709, hits 2,    config 3 -way
smaller tournament 217, insn 26391213, accesses_since_last 131073, miss_sat 0, miss_rat 0.000012
smaller tournament 217 outcome, insn 26392364, accesses 1270, hits 2,    config 3 -way
smaller tournament 218, insn 26512948, accesses_since_last 131073, miss_sat 0, miss_rat 0.000012
smaller tournament 218 outcome, insn 26512962, accesses 13, hits 2,    config 3 -way
smaller tournament 219, insn 26633670, accesses_since_last 131073, miss_sat 0, miss_rat 0.000012
smaller tournament 219 outcome, insn 26633751, accesses 131, hits 2,    config 3 -way
smaller tournament 220, insn 26754423, accesses_since_last 131073, miss_sat 0, miss_rat 0.000012
smaller tournament 220 outcome, insn 26755562, accesses 1230, hits 2,    config 3 -way
smaller tournament 221, insn 26876041, accesses_since_last 131073, miss_sat 0, miss_rat 0.000012
smaller tournament 221 outcome, insn 26876904, accesses 881, hits 2,    config 3 -way
smaller tournament 222, insn 26997401, accesses_since_last 131073, miss_sat 0, miss_rat 0.000012
smaller tournament 222 outcome, insn 26998498, accesses 1180, hits 2,    config 3 -way
smaller tournament 223, insn 27119058, accesses_since_last 131073, miss_sat 0, miss_rat 0.000012
smaller tournament 223 outcome, insn 27119519, accesses 536, hits 2,    config 3 -way
smaller tournament 224, insn 27239931, accesses_since_last 131073, miss_sat 0, miss_rat 0.000011
smaller tournament 224 outcome, insn 27241242, accesses 1415, hits 2,    config 3 -way
smaller tournament 225, insn 27361876, accesses_since_last 131073, miss_sat 0, miss_rat 0.000011
smaller tournament 225 outcome, insn 27363214, accesses 1426, hits 2,    config 3 -way
smaller tournament 226, insn 27483715, accesses_since_last 131073, miss_sat 0, miss_rat 0.000011
smaller tournament 226 outcome, insn 27484378, accesses 760, hits 2,    config 3 -way
smaller tournament 227, insn 27605246, accesses_since_last 131073, miss_sat 0, miss_rat 0.000011
smaller tournament 227 outcome, insn 27605310, accesses 90, hits 2,    config 3 -way
smaller tournament 228, insn 27725963, accesses_since_last 131073, miss_sat 0, miss_rat 0.000011
smaller tournament 228 outcome, insn 27726553, accesses 665, hits 2,    config 3 -way
smaller tournament 229, insn 27847266, accesses_since_last 131073, miss_sat 0, miss_rat 0.000011
smaller tournament 229 outcome, insn 27847797, accesses 610, hits 2,    config 3 -way
smaller tournament 230, insn 27968692, accesses_since_last 131073, miss_sat 0, miss_rat 0.000011
smaller tournament 230 outcome, insn 27968721, accesses 28, hits 2,    config 3 -way
smaller tournament 231, insn 28089322, accesses_since_last 131073, miss_sat 0, miss_rat 0.000011
smaller tournament 231 outcome, insn 28089486, accesses 163, hits 2,    config 3 -way
smaller tournament 232, insn 28210202, accesses_since_last 131073, miss_sat 0, miss_rat 0.000011
smaller tournament 232 outcome, insn 28211190, accesses 1062, hits 2,    config 3 -way
smaller tournament 233, insn 28331894, accesses_since_last 131073, miss_sat 0, miss_rat 0.000011
smaller tournament 233 outcome, insn 28332890, accesses 1073, hits 2,    config 3 -way
smaller tournament 234, insn 28453453, accesses_since_last 131073, miss_sat 0, miss_rat 0.000011
smaller tournament 234 outcome, insn 28455389, accesses 2035, hits 2,    config 3 -way
smaller tournament 235, insn 28575971, accesses_since_last 131073, miss_sat 0, miss_rat 0.000011
smaller tournament 235 outcome, insn 28576331, accesses 402, hits 2,    config 3 -way
smaller tournament 236, insn 28696806, accesses_since_last 131073, miss_sat 0, miss_rat 0.000011
smaller tournament 236 outcome, insn 28697134, accesses 366, hits 2,    config 3 -way
smaller tournament 237, insn 28817675, accesses_since_last 131073, miss_sat 0, miss_rat 0.000011
smaller tournament 237 outcome, insn 28817917, accesses 289, hits 2,    config 3 -way
smaller tournament 238, insn 28938634, accesses_since_last 131073, miss_sat 0, miss_rat 0.000011
smaller tournament 238 outcome, insn 28939202, accesses 633, hits 2,    config 3 -way
smaller tournament 239, insn 29059693, accesses_since_last 131073, miss_sat 0, miss_rat 0.000011
smaller tournament 239 outcome, insn 29060235, accesses 602, hits 2,    config 3 -way
smaller tournament 240, insn 29180696, accesses_since_last 131073, miss_sat 0, miss_rat 0.000011
smaller tournament 240 outcome, insn 29180727, accesses 30, hits 2,    config 3 -way
smaller tournament 241, insn 29301568, accesses_since_last 131073, miss_sat 0, miss_rat 0.000011
smaller tournament 241 outcome, insn 29301576, accesses 10, hits 2,    config 3 -way
smaller tournament 242, insn 29422319, accesses_since_last 131073, miss_sat 0, miss_rat 0.000011
smaller tournament 242 outcome, insn 29423395, accesses 1144, hits 2,    config 3 -way
smaller tournament 243, insn 29543920, accesses_since_last 131073, miss_sat 0, miss_rat 0.000011
smaller tournament 243 outcome, insn 29544309, accesses 455, hits 2,    config 3 -way
smaller tournament 244, insn 29664934, accesses_since_last 131073, miss_sat 0, miss_rat 0.000011
smaller tournament 244 outcome, insn 29666141, accesses 1294, hits 2,    config 3 -way
smaller tournament 245, insn 29786916, accesses_since_last 131073, miss_sat 0, miss_rat 0.000011
smaller tournament 245 outcome, insn 29787206, accesses 341, hits 2,    config 3 -way
smaller tournament 246, insn 29907779, accesses_since_last 131073, miss_sat 0, miss_rat 0.000010
smaller tournament 246 outcome, insn 29908449, accesses 774, hits 2,    config 3 -way
smaller tournament 247, insn 30029362, accesses_since_last 131073, miss_sat 0, miss_rat 0.000010
smaller tournament 247 outcome, insn 30029634, accesses 287, hits 2,    config 3 -way
smaller tournament 248, insn 30150335, accesses_since_last 131073, miss_sat 0, miss_rat 0.000010
smaller tournament 248 outcome, insn 30150578, accesses 269, hits 2,    config 3 -way
smaller tournament 249, insn 30271077, accesses_since_last 131073, miss_sat 0, miss_rat 0.000010
smaller tournament 249 outcome, insn 30271681, accesses 681, hits 2,    config 3 -way
smaller tournament 250, insn 30392200, accesses_since_last 131073, miss_sat 0, miss_rat 0.000010
smaller tournament 250 outcome, insn 30393744, accesses 1615, hits 2,    config 3 -way
smaller tournament 251, insn 30514196, accesses_since_last 131073, miss_sat 0, miss_rat 0.000010
smaller tournament 251 outcome, insn 30515222, accesses 1088, hits 2,    config 3 -way
smaller tournament 252, insn 30635632, accesses_since_last 131073, miss_sat 0, miss_rat 0.000010
smaller tournament 252 outcome, insn 30635774, accesses 192, hits 2,    config 3 -way
smaller tournament 253, insn 30756156, accesses_since_last 131073, miss_sat 0, miss_rat 0.000010
smaller tournament 253 outcome, insn 30756331, accesses 194, hits 2,    config 3 -way
smaller tournament 254, insn 30877129, accesses_since_last 131073, miss_sat 0, miss_rat 0.000010
smaller tournament 254 outcome, insn 30877584, accesses 524, hits 2,    config 3 -way
smaller tournament 255, insn 30998045, accesses_since_last 131073, miss_sat 0, miss_rat 0.000010
smaller tournament 255 outcome, insn 30998209, accesses 170, hits 2,    config 3 -way
smaller tournament 256, insn 31119020, accesses_since_last 131073, miss_sat 0, miss_rat 0.000010
smaller tournament 256 outcome, insn 31119502, accesses 548, hits 2,    config 3 -way
smaller tournament 257, insn 31239985, accesses_since_last 131073, miss_sat 0, miss_rat 0.000010
smaller tournament 257 outcome, insn 31240095, accesses 108, hits 2,    config 3 -way
smaller tournament 258, insn 31360734, accesses_since_last 131073, miss_sat 0, miss_rat 0.000010
smaller tournament 258 outcome, insn 31361342, accesses 677, hits 2,    config 3 -way
smaller tournament 259, insn 31481810, accesses_since_last 131073, miss_sat 0, miss_rat 0.000010
smaller tournament 259 outcome, insn 31482113, accesses 335, hits 2,    config 3 -way
smaller tournament 260, insn 31602845, accesses_since_last 131073, miss_sat 0, miss_rat 0.000010
smaller tournament 260 outcome, insn 31603025, accesses 228, hits 2,    config 3 -way
smaller tournament 261, insn 31723533, accesses_since_last 131073, miss_sat 0, miss_rat 0.000010
smaller tournament 261 outcome, insn 31724651, accesses 1188, hits 2,    config 3 -way
smaller tournament 262, insn 31845017, accesses_since_last 131073, miss_sat 0, miss_rat 0.000010
smaller tournament 262 outcome, insn 31845308, accesses 312, hits 2,    config 3 -way
smaller tournament 263, insn 31965941, accesses_since_last 131073, miss_sat 0, miss_rat 0.000010
smaller tournament 263 outcome, insn 31966943, accesses 1078, hits 2,    config 3 -way
smaller tournament 264, insn 32087613, accesses_since_last 131073, miss_sat 0, miss_rat 0.000010
smaller tournament 264 outcome, insn 32088809, accesses 1293, hits 2,    config 3 -way
smaller tournament 265, insn 32209123, accesses_since_last 131073, miss_sat 0, miss_rat 0.000010
smaller tournament 265 outcome, insn 32209511, accesses 450, hits 2,    config 3 -way
smaller tournament 266, insn 32329628, accesses_since_last 131073, miss_sat 0, miss_rat 0.000010
smaller tournament 266 outcome, insn 32330310, accesses 743, hits 2,    config 3 -way
smaller tournament 267, insn 32450858, accesses_since_last 131073, miss_sat 0, miss_rat 0.000010
smaller tournament 267 outcome, insn 32452213, accesses 1438, hits 2,    config 3 -way
smaller tournament 268, insn 32572916, accesses_since_last 131073, miss_sat 0, miss_rat 0.000010
smaller tournament 268 outcome, insn 32573012, accesses 96, hits 2,    config 3 -way
smaller tournament 269, insn 32693737, accesses_since_last 131073, miss_sat 0, miss_rat 0.000010
smaller tournament 269 outcome, insn 32695311, accesses 1672, hits 2,    config 3 -way
smaller tournament 270, insn 32816093, accesses_since_last 131073, miss_sat 0, miss_rat 0.000010
smaller tournament 270 outcome, insn 32816642, accesses 611, hits 2,    config 3 -way
smaller tournament 271, insn 32937319, accesses_since_last 131073, miss_sat 0, miss_rat 0.000009
smaller tournament 271 outcome, insn 32938092, accesses 851, hits 2,    config 3 -way
smaller tournament 272, insn 33058608, accesses_since_last 131073, miss_sat 0, miss_rat 0.000009
smaller tournament 272 outcome, insn 33058740, accesses 131, hits 2,    config 3 -way
smaller tournament 273, insn 33179372, accesses_since_last 131073, miss_sat 0, miss_rat 0.000009
smaller tournament 273 outcome, insn 33179510, accesses 136, hits 2,    config 3 -way
smaller tournament 274, insn 33300108, accesses_since_last 131073, miss_sat 0, miss_rat 0.000009
smaller tournament 274 outcome, insn 33300416, accesses 335, hits 2,    config 3 -way
smaller tournament 275, insn 33420982, accesses_since_last 131073, miss_sat 0, miss_rat 0.000009
smaller tournament 275 outcome, insn 33421442, accesses 528, hits 2,    config 3 -way
smaller tournament 276, insn 33542040, accesses_since_last 131073, miss_sat 0, miss_rat 0.000009
smaller tournament 276 outcome, insn 33542317, accesses 286, hits 2,    config 3 -way
smaller tournament 277, insn 33662966, accesses_since_last 131073, miss_sat 0, miss_rat 0.000009
smaller tournament 277 outcome, insn 33664963, accesses 2079, hits 2,    config 3 -way
smaller tournament 278, insn 33785589, accesses_since_last 131073, miss_sat 0, miss_rat 0.000009
smaller tournament 278 outcome, insn 33785773, accesses 211, hits 2,    config 3 -way
smaller tournament 279, insn 33906200, accesses_since_last 131073, miss_sat 0, miss_rat 0.000009
smaller tournament 279 outcome, insn 33906257, accesses 58, hits 2,    config 3 -way
smaller tournament 280, insn 34026790, accesses_since_last 131073, miss_sat 0, miss_rat 0.000009
smaller tournament 280 outcome, insn 34027674, accesses 978, hits 2,    config 3 -way
smaller tournament 281, insn 34148001, accesses_since_last 131073, miss_sat 0, miss_rat 0.000009
smaller tournament 281 outcome, insn 34148807, accesses 863, hits 2,    config 3 -way
smaller tournament 282, insn 34269281, accesses_since_last 131073, miss_sat 0, miss_rat 0.000009
smaller tournament 282 outcome, insn 34270611, accesses 1410, hits 2,    config 3 -way
smaller tournament 283, insn 34390919, accesses_since_last 131073, miss_sat 0, miss_rat 0.000009
smaller tournament 283 outcome, insn 34391426, accesses 524, hits 2,    config 3 -way
smaller tournament 284, insn 34511857, accesses_since_last 131073, miss_sat 0, miss_rat 0.000009
smaller tournament 284 outcome, insn 34512494, accesses 696, hits 2,    config 3 -way
smaller tournament 285, insn 34633373, accesses_since_last 131073, miss_sat 0, miss_rat 0.000009
smaller tournament 285 outcome, insn 34635302, accesses 2028, hits 2,    config 3 -way
smaller tournament 286, insn 34755748, accesses_since_last 131073, miss_sat 0, miss_rat 0.000009
smaller tournament 286 outcome, insn 34756898, accesses 1243, hits 2,    config 3 -way
smaller tournament 287, insn 34877389, accesses_since_last 131073, miss_sat 0, miss_rat 0.000009
smaller tournament 287 outcome, insn 34878000, accesses 628, hits 2,    config 3 -way
smaller tournament 288, insn 34998697, accesses_since_last 131073, miss_sat 0, miss_rat 0.000009
smaller tournament 288 outcome, insn 35000669, accesses 2108, hits 2,    config 3 -way
smaller tournament 289, insn 35121262, accesses_since_last 131073, miss_sat 0, miss_rat 0.000009
smaller tournament 289 outcome, insn 35121911, accesses 711, hits 2,    config 3 -way
smaller tournament 290, insn 35242572, accesses_since_last 131073, miss_sat 0, miss_rat 0.000009
smaller tournament 290 outcome, insn 35243142, accesses 627, hits 2,    config 3 -way
smaller tournament 291, insn 35363773, accesses_since_last 131073, miss_sat 0, miss_rat 0.000009
smaller tournament 291 outcome, insn 35364225, accesses 526, hits 2,    config 3 -way
smaller tournament 292, insn 35484672, accesses_since_last 131073, miss_sat 0, miss_rat 0.000009
smaller tournament 292 outcome, insn 35485223, accesses 645, hits 2,    config 3 -way
smaller tournament 293, insn 35605784, accesses_since_last 131073, miss_sat 0, miss_rat 0.000009
smaller tournament 293 outcome, insn 35606056, accesses 301, hits 2,    config 3 -way
smaller tournament 294, insn 35726180, accesses_since_last 131073, miss_sat 0, miss_rat 0.000009
smaller tournament 294 outcome, insn 35726251, accesses 81, hits 2,    config 3 -way
smaller tournament 295, insn 35846803, accesses_since_last 131073, miss_sat 0, miss_rat 0.000009
smaller tournament 295 outcome, insn 35847489, accesses 749, hits 2,    config 3 -way
smaller tournament 296, insn 35968192, accesses_since_last 131073, miss_sat 0, miss_rat 0.000009
smaller tournament 296 outcome, insn 35969403, accesses 1283, hits 2,    config 3 -way
smaller tournament 297, insn 36090037, accesses_since_last 131073, miss_sat 0, miss_rat 0.000009
smaller tournament 297 outcome, insn 36090516, accesses 543, hits 2,    config 3 -way
smaller tournament 298, insn 36210861, accesses_since_last 131073, miss_sat 0, miss_rat 0.000009
smaller tournament 298 outcome, insn 36211868, accesses 1084, hits 2,    config 3 -way
smaller tournament 299, insn 36332024, accesses_since_last 131073, miss_sat 0, miss_rat 0.000009
smaller tournament 299 outcome, insn 36332583, accesses 604, hits 2,    config 3 -way
smaller tournament 300, insn 36452933, accesses_since_last 131073, miss_sat 0, miss_rat 0.000009
smaller tournament 300 outcome, insn 36453461, accesses 547, hits 2,    config 3 -way
smaller tournament 301, insn 36573602, accesses_since_last 131073, miss_sat 0, miss_rat 0.000009
smaller tournament 301 outcome, insn 36573736, accesses 147, hits 2,    config 3 -way
smaller tournament 302, insn 36693876, accesses_since_last 131073, miss_sat 0, miss_rat 0.000009
smaller tournament 302 outcome, insn 36694533, accesses 688, hits 2,    config 3 -way
smaller tournament 303, insn 36815363, accesses_since_last 131073, miss_sat 0, miss_rat 0.000008
smaller tournament 303 outcome, insn 36815391, accesses 26, hits 2,    config 3 -way
smaller tournament 304, insn 36936133, accesses_since_last 131073, miss_sat 0, miss_rat 0.000008
smaller tournament 304 outcome, insn 36936328, accesses 244, hits 2,    config 3 -way
smaller tournament 305, insn 37056988, accesses_since_last 131073, miss_sat 0, miss_rat 0.000008
smaller tournament 305 outcome, insn 37057364, accesses 437, hits 2,    config 3 -way
smaller tournament 306, insn 37177751, accesses_since_last 131073, miss_sat 0, miss_rat 0.000008
smaller tournament 306 outcome, insn 37178748, accesses 1059, hits 2,    config 3 -way
smaller tournament 307, insn 37299278, accesses_since_last 131073, miss_sat 0, miss_rat 0.000008
smaller tournament 307 outcome, insn 37299698, accesses 467, hits 2,    config 3 -way
smaller tournament 308, insn 37420348, accesses_since_last 131073, miss_sat 0, miss_rat 0.000008
smaller tournament 308 outcome, insn 37421927, accesses 1695, hits 2,    config 3 -way
smaller tournament 309, insn 37542140, accesses_since_last 131073, miss_sat 0, miss_rat 0.000008
smaller tournament 309 outcome, insn 37542888, accesses 811, hits 2,    config 3 -way
smaller tournament 310, insn 37663629, accesses_since_last 131073, miss_sat 0, miss_rat 0.000008
smaller tournament 310 outcome, insn 37665170, accesses 1624, hits 2,    config 3 -way
smaller tournament 311, insn 37785892, accesses_since_last 131073, miss_sat 0, miss_rat 0.000008
smaller tournament 311 outcome, insn 37786204, accesses 368, hits 2,    config 3 -way
smaller tournament 312, insn 37906938, accesses_since_last 131073, miss_sat 0, miss_rat 0.000008
smaller tournament 312 outcome, insn 37908105, accesses 1260, hits 2,    config 3 -way
smaller tournament 313, insn 38028697, accesses_since_last 131073, miss_sat 0, miss_rat 0.000008
smaller tournament 313 outcome, insn 38028822, accesses 125, hits 2,    config 3 -way
smaller tournament 314, insn 38149315, accesses_since_last 131073, miss_sat 0, miss_rat 0.000008
smaller tournament 314 outcome, insn 38150878, accesses 1616, hits 2,    config 3 -way
smaller tournament 315, insn 38271031, accesses_since_last 131073, miss_sat 0, miss_rat 0.000008
smaller tournament 315 outcome, insn 38271546, accesses 583, hits 2,    config 3 -way
smaller tournament 316, insn 38391979, accesses_since_last 131073, miss_sat 0, miss_rat 0.000008
smaller tournament 316 outcome, insn 38393786, accesses 1896, hits 2,    config 3 -way
smaller tournament 317, insn 38514383, accesses_since_last 131073, miss_sat 0, miss_rat 0.000008
smaller tournament 317 outcome, insn 38514588, accesses 251, hits 2,    config 3 -way
smaller tournament 318, insn 38635262, accesses_since_last 131073, miss_sat 0, miss_rat 0.000008
smaller tournament 318 outcome, insn 38635604, accesses 388, hits 2,    config 3 -way
smaller tournament 319, insn 38756293, accesses_since_last 131073, miss_sat 0, miss_rat 0.000008
smaller tournament 319 outcome, insn 38757545, accesses 1333, hits 2,    config 3 -way
smaller tournament 320, insn 38878046, accesses_since_last 131073, miss_sat 0, miss_rat 0.000008
smaller tournament 320 outcome, insn 38878990, accesses 1027, hits 2,    config 3 -way
smaller tournament 321, insn 38999426, accesses_since_last 131073, miss_sat 0, miss_rat 0.000008
smaller tournament 321 outcome, insn 39000044, accesses 663, hits 2,    config 3 -way
smaller tournament 322, insn 39120505, accesses_since_last 131073, miss_sat 0, miss_rat 0.000008
smaller tournament 322 outcome, insn 39120816, accesses 330, hits 2,    config 3 -way
smaller tournament 323, insn 39241431, accesses_since_last 131073, miss_sat 0, miss_rat 0.000008
smaller tournament 323 outcome, insn 39241435, accesses 5, hits 2,    config 3 -way
smaller tournament 324, insn 39362318, accesses_since_last 131073, miss_sat 0, miss_rat 0.000008
smaller tournament 324 outcome, insn 39362452, accesses 183, hits 2,    config 3 -way
smaller tournament 325, insn 39483194, accesses_since_last 131073, miss_sat 0, miss_rat 0.000008
smaller tournament 325 outcome, insn 39483879, accesses 786, hits 2,    config 3 -way
smaller tournament 326, insn 39604597, accesses_since_last 131073, miss_sat 0, miss_rat 0.000008
smaller tournament 326 outcome, insn 39604916, accesses 371, hits 2,    config 3 -way
smaller tournament 327, insn 39725808, accesses_since_last 131073, miss_sat 0, miss_rat 0.000008
smaller tournament 327 outcome, insn 39726924, accesses 1234, hits 2,    config 3 -way
smaller tournament 328, insn 39847519, accesses_since_last 131073, miss_sat 0, miss_rat 0.000008
smaller tournament 328 outcome, insn 39847549, accesses 30, hits 2,    config 3 -way
smaller tournament 329, insn 39968235, accesses_since_last 131073, miss_sat 0, miss_rat 0.000008
smaller tournament 329 outcome, insn 39968856, accesses 688, hits 2,    config 3 -way
smaller tournament 330, insn 40089343, accesses_since_last 131073, miss_sat 0, miss_rat 0.000008
smaller tournament 330 outcome, insn 40090311, accesses 1043, hits 2,    config 3 -way
smaller tournament 331, insn 40210878, accesses_since_last 131073, miss_sat 0, miss_rat 0.000008
smaller tournament 331 outcome, insn 40211949, accesses 1153, hits 2,    config 3 -way
smaller tournament 332, insn 40332692, accesses_since_last 131073, miss_sat 0, miss_rat 0.000008
smaller tournament 332 outcome, insn 40332825, accesses 178, hits 2,    config 3 -way
smaller tournament 333, insn 40453616, accesses_since_last 131073, miss_sat 0, miss_rat 0.000008
smaller tournament 333 outcome, insn 40454214, accesses 676, hits 2,    config 3 -way
smaller tournament 334, insn 40574933, accesses_since_last 131073, miss_sat 0, miss_rat 0.000008
smaller tournament 334 outcome, insn 40576656, accesses 1794, hits 2,    config 3 -way
smaller tournament 335, insn 40697424, accesses_since_last 131073, miss_sat 0, miss_rat 0.000008
smaller tournament 335 outcome, insn 40698269, accesses 926, hits 2,    config 3 -way
smaller tournament 336, insn 40819012, accesses_since_last 131073, miss_sat 0, miss_rat 0.000008
smaller tournament 336 outcome, insn 40820556, accesses 1649, hits 2,    config 3 -way
smaller tournament 337, insn 40941204, accesses_since_last 131073, miss_sat 0, miss_rat 0.000008
smaller tournament 337 outcome, insn 40942200, accesses 1074, hits 2,    config 3 -way
smaller tournament 338, insn 41062778, accesses_since_last 131073, miss_sat 0, miss_rat 0.000008
smaller tournament 338 outcome, insn 41063837, accesses 1137, hits 2,    config 3 -way
smaller tournament 339, insn 41184563, accesses_since_last 131073, miss_sat 0, miss_rat 0.000008
smaller tournament 339 outcome, insn 41184723, accesses 204, hits 2,    config 3 -way
smaller tournament 340, insn 41305332, accesses_since_last 131073, miss_sat 0, miss_rat 0.000008
smaller tournament 340 outcome, insn 41305619, accesses 331, hits 2,    config 3 -way
smaller tournament 341, insn 41426308, accesses_since_last 131073, miss_sat 0, miss_rat 0.000008
smaller tournament 341 outcome, insn 41426834, accesses 591, hits 2,    config 3 -way
smaller tournament 342, insn 41547311, accesses_since_last 131073, miss_sat 0, miss_rat 0.000008
smaller tournament 342 outcome, insn 41547917, accesses 662, hits 2,    config 3 -way
smaller tournament 343, insn 41668607, accesses_since_last 131073, miss_sat 0, miss_rat 0.000008
smaller tournament 343 outcome, insn 41669784, accesses 1260, hits 2,    config 3 -way
smaller tournament 344, insn 41790226, accesses_since_last 131073, miss_sat 0, miss_rat 0.000007
smaller tournament 344 outcome, insn 41790851, accesses 688, hits 2,    config 3 -way
smaller tournament 345, insn 41911264, accesses_since_last 131073, miss_sat 0, miss_rat 0.000007
smaller tournament 345 outcome, insn 41912676, accesses 1493, hits 2,    config 3 -way
smaller tournament 346, insn 42033464, accesses_since_last 131073, miss_sat 0, miss_rat 0.000007
smaller tournament 346 outcome, insn 42034725, accesses 1353, hits 2,    config 3 -way
smaller tournament 347, insn 42155276, accesses_since_last 131073, miss_sat 0, miss_rat 0.000007
smaller tournament 347 outcome, insn 42155947, accesses 736, hits 2,    config 3 -way
smaller tournament 348, insn 42276479, accesses_since_last 131073, miss_sat 0, miss_rat 0.000007
smaller tournament 348 outcome, insn 42277025, accesses 603, hits 2,    config 3 -way
smaller tournament 349, insn 42397515, accesses_since_last 131073, miss_sat 0, miss_rat 0.000007
smaller tournament 349 outcome, insn 42399078, accesses 1618, hits 2,    config 3 -way
smaller tournament 350, insn 42519742, accesses_since_last 131073, miss_sat 0, miss_rat 0.000007
smaller tournament 350 outcome, insn 42521410, accesses 1749, hits 2,    config 3 -way
smaller tournament 351, insn 42641886, accesses_since_last 131073, miss_sat 0, miss_rat 0.000007
smaller tournament 351 outcome, insn 42642994, accesses 1191, hits 2,    config 3 -way
smaller tournament 352, insn 42763585, accesses_since_last 131073, miss_sat 0, miss_rat 0.000007
smaller tournament 352 outcome, insn 42764634, accesses 1113, hits 2,    config 3 -way
smaller tournament 353, insn 42885419, accesses_since_last 131073, miss_sat 0, miss_rat 0.000007
smaller tournament 353 outcome, insn 42886891, accesses 1555, hits 2,    config 3 -way
smaller tournament 354, insn 43007565, accesses_since_last 131073, miss_sat 0, miss_rat 0.000007
smaller tournament 354 outcome, insn 43008486, accesses 985, hits 2,    config 3 -way
smaller tournament 355, insn 43129262, accesses_since_last 131073, miss_sat 0, miss_rat 0.000007
smaller tournament 355 outcome, insn 43129710, accesses 522, hits 2,    config 3 -way
smaller tournament 356, insn 43250333, accesses_since_last 131073, miss_sat 0, miss_rat 0.000007
smaller tournament 356 outcome, insn 43251706, accesses 1456, hits 2,    config 3 -way
smaller tournament 357, insn 43372356, accesses_since_last 131073, miss_sat 0, miss_rat 0.000007
smaller tournament 357 outcome, insn 43372682, accesses 373, hits 2,    config 3 -way
smaller tournament 358, insn 43493348, accesses_since_last 131073, miss_sat 0, miss_rat 0.000007
smaller tournament 358 outcome, insn 43494520, accesses 1276, hits 2,    config 3 -way
smaller tournament 359, insn 43615031, accesses_since_last 131073, miss_sat 0, miss_rat 0.000007
smaller tournament 359 outcome, insn 43615073, accesses 44, hits 2,    config 3 -way
smaller tournament 360, insn 43735721, accesses_since_last 131073, miss_sat 0, miss_rat 0.000007
smaller tournament 360 outcome, insn 43735939, accesses 218, hits 2,    config 3 -way
smaller tournament 361, insn 43856571, accesses_since_last 131073, miss_sat 0, miss_rat 0.000007
smaller tournament 361 outcome, insn 43856955, accesses 423, hits 2,    config 3 -way
smaller tournament 362, insn 43977785, accesses_since_last 131073, miss_sat 0, miss_rat 0.000007
smaller tournament 362 outcome, insn 43978073, accesses 320, hits 2,    config 3 -way
smaller tournament 363, insn 44098883, accesses_since_last 131073, miss_sat 0, miss_rat 0.000007
smaller tournament 363 outcome, insn 44099704, accesses 916, hits 2,    config 3 -way
smaller tournament 364, insn 44220467, accesses_since_last 131073, miss_sat 0, miss_rat 0.000007
smaller tournament 364 outcome, insn 44221559, accesses 1163, hits 2,    config 3 -way
smaller tournament 365, insn 44342099, accesses_since_last 131073, miss_sat 0, miss_rat 0.000007
smaller tournament 365 outcome, insn 44342990, accesses 988, hits 2,    config 3 -way
smaller tournament 366, insn 44463532, accesses_since_last 131073, miss_sat 0, miss_rat 0.000007
smaller tournament 366 outcome, insn 44463762, accesses 278, hits 2,    config 3 -way
smaller tournament 367, insn 44584340, accesses_since_last 131073, miss_sat 0, miss_rat 0.000007
smaller tournament 367 outcome, insn 44584538, accesses 206, hits 2,    config 3 -way
smaller tournament 368, insn 44705189, accesses_since_last 131073, miss_sat 0, miss_rat 0.000007
smaller tournament 368 outcome, insn 44706326, accesses 1225, hits 2,    config 3 -way
smaller tournament 369, insn 44826867, accesses_since_last 131073, miss_sat 0, miss_rat 0.000007
smaller tournament 369 outcome, insn 44827427, accesses 628, hits 2,    config 3 -way
smaller tournament 370, insn 44948034, accesses_since_last 131073, miss_sat 0, miss_rat 0.000007
smaller tournament 370 outcome, insn 44949065, accesses 1134, hits 2,    config 3 -way
smaller tournament 371, insn 45069642, accesses_since_last 131073, miss_sat 0, miss_rat 0.000007
smaller tournament 371 outcome, insn 45069733, accesses 89, hits 2,    config 3 -way
smaller tournament 372, insn 45190424, accesses_since_last 131073, miss_sat 0, miss_rat 0.000007
smaller tournament 372 outcome, insn 45190723, accesses 331, hits 2,    config 3 -way
smaller tournament 373, insn 45311149, accesses_since_last 131073, miss_sat 0, miss_rat 0.000007
smaller tournament 373 outcome, insn 45311763, accesses 639, hits 2,    config 3 -way
smaller tournament 374, insn 45432380, accesses_since_last 131073, miss_sat 0, miss_rat 0.000007
smaller tournament 374 outcome, insn 45432782, accesses 448, hits 2,    config 3 -way
smaller tournament 375, insn 45553510, accesses_since_last 131073, miss_sat 0, miss_rat 0.000007
smaller tournament 375 outcome, insn 45554989, accesses 1534, hits 2,    config 3 -way
smaller tournament 376, insn 45675680, accesses_since_last 131073, miss_sat 0, miss_rat 0.000007
smaller tournament 376 outcome, insn 45676163, accesses 546, hits 2,    config 3 -way
smaller tournament 377, insn 45797030, accesses_since_last 131073, miss_sat 0, miss_rat 0.000007
smaller tournament 377 outcome, insn 45797613, accesses 655, hits 2,    config 3 -way
smaller tournament 378, insn 45918350, accesses_since_last 131073, miss_sat 0, miss_rat 0.000007
smaller tournament 378 outcome, insn 45919639, accesses 1369, hits 2,    config 3 -way
smaller tournament 379, insn 46040395, accesses_since_last 131073, miss_sat 0, miss_rat 0.000007
smaller tournament 379 outcome, insn 46040488, accesses 111, hits 2,    config 3 -way
smaller tournament 380, insn 46161177, accesses_since_last 131073, miss_sat 0, miss_rat 0.000007
smaller tournament 380 outcome, insn 46162737, accesses 1674, hits 2,    config 3 -way
smaller tournament 381, insn 46283072, accesses_since_last 131073, miss_sat 0, miss_rat 0.000007
smaller tournament 381 outcome, insn 46283560, accesses 507, hits 2,    config 3 -way
smaller tournament 382, insn 46404140, accesses_since_last 131073, miss_sat 0, miss_rat 0.000007
smaller tournament 382 outcome, insn 46405539, accesses 1498, hits 2,    config 3 -way
smaller tournament 383, insn 46526109, accesses_since_last 131073, miss_sat 0, miss_rat 0.000007
smaller tournament 383 outcome, insn 46527311, accesses 1317, hits 2,    config 3 -way
smaller tournament 384, insn 46647877, accesses_since_last 131073, miss_sat 0, miss_rat 0.000007
smaller tournament 384 outcome, insn 46648469, accesses 656, hits 2,    config 3 -way
smaller tournament 385, insn 46769075, accesses_since_last 131073, miss_sat 0, miss_rat 0.000007
smaller tournament 385 outcome, insn 46769479, accesses 471, hits 2,    config 3 -way
smaller tournament 386, insn 46890107, accesses_since_last 131073, miss_sat 0, miss_rat 0.000007
smaller tournament 386 outcome, insn 46890193, accesses 105, hits 2,    config 3 -way
smaller tournament 387, insn 47010652, accesses_since_last 131073, miss_sat 0, miss_rat 0.000007
smaller tournament 387 outcome, insn 47011202, accesses 622, hits 2,    config 3 -way
smaller tournament 388, insn 47131617, accesses_since_last 131073, miss_sat 0, miss_rat 0.000007
smaller tournament 388 outcome, insn 47133144, accesses 1631, hits 2,    config 3 -way
smaller tournament 389, insn 47253507, accesses_since_last 131073, miss_sat 0, miss_rat 0.000007
smaller tournament 389 outcome, insn 47254340, accesses 850, hits 2,    config 3 -way
smaller tournament 390, insn 47374593, accesses_since_last 131073, miss_sat 0, miss_rat 0.000007
smaller tournament 390 outcome, insn 47376468, accesses 1948, hits 2,    config 3 -way
smaller tournament 391, insn 47497018, accesses_since_last 131073, miss_sat 0, miss_rat 0.000007
smaller tournament 391 outcome, insn 47498253, accesses 1334, hits 2,    config 3 -way
smaller tournament 392, insn 47619025, accesses_since_last 131073, miss_sat 0, miss_rat 0.000007
smaller tournament 392 outcome, insn 47619929, accesses 981, hits 2,    config 3 -way
smaller tournament 393, insn 47740684, accesses_since_last 131073, miss_sat 0, miss_rat 0.000007
smaller tournament 393 outcome, insn 47741087, accesses 462, hits 2,    config 3 -way
smaller tournament 394, insn 47861597, accesses_since_last 131073, miss_sat 0, miss_rat 0.000007
smaller tournament 394 outcome, insn 47861845, accesses 299, hits 2,    config 3 -way
smaller tournament 395, insn 47982188, accesses_since_last 131073, miss_sat 0, miss_rat 0.000007
smaller tournament 395 outcome, insn 47982683, accesses 512, hits 2,    config 3 -way
smaller tournament 396, insn 48103002, accesses_since_last 131073, miss_sat 0, miss_rat 0.000007
smaller tournament 396 outcome, insn 48103768, accesses 839, hits 2,    config 3 -way
smaller tournament 397, insn 48224042, accesses_since_last 131073, miss_sat 0, miss_rat 0.000006
smaller tournament 397 outcome, insn 48224476, accesses 464, hits 2,    config 3 -way
smaller tournament 398, insn 48344739, accesses_since_last 131073, miss_sat 0, miss_rat 0.000006
smaller tournament 398 outcome, insn 48345959, accesses 1318, hits 2,    config 3 -way
smaller tournament 399, insn 48466596, accesses_since_last 131073, miss_sat 0, miss_rat 0.000006
smaller tournament 399 outcome, insn 48466666, accesses 121, hits 2,    config 3 -way
smaller tournament 400, insn 48586959, accesses_since_last 131073, miss_sat 0, miss_rat 0.000006
smaller tournament 400 outcome, insn 48587223, accesses 310, hits 2,    config 3 -way
smaller tournament 401, insn 48707239, accesses_since_last 131073, miss_sat 0, miss_rat 0.000006
smaller tournament 401 outcome, insn 48707741, accesses 521, hits 2,    config 3 -way
smaller tournament 402, insn 48828360, accesses_since_last 131073, miss_sat 0, miss_rat 0.000006
smaller tournament 402 outcome, insn 48829938, accesses 1678, hits 2,    config 3 -way
smaller tournament 403, insn 48950327, accesses_since_last 131073, miss_sat 0, miss_rat 0.000006
smaller tournament 403 outcome, insn 48950361, accesses 34, hits 2,    config 3 -way
smaller tournament 404, insn 49070510, accesses_since_last 131073, miss_sat 0, miss_rat 0.000006
smaller tournament 404 outcome, insn 49070640, accesses 129, hits 2,    config 3 -way
smaller tournament 405, insn 49191017, accesses_since_last 131073, miss_sat 0, miss_rat 0.000006
smaller tournament 405 outcome, insn 49191855, accesses 894, hits 2,    config 3 -way
smaller tournament 406, insn 49312173, accesses_since_last 131073, miss_sat 0, miss_rat 0.000006
smaller tournament 406 outcome, insn 49313023, accesses 952, hits 2,    config 3 -way
smaller tournament 407, insn 49433118, accesses_since_last 131073, miss_sat 0, miss_rat 0.000006
smaller tournament 407 outcome, insn 49434248, accesses 1214, hits 2,    config 3 -way
smaller tournament 408, insn 49554291, accesses_since_last 131073, miss_sat 0, miss_rat 0.000006
smaller tournament 408 outcome, insn 49554399, accesses 145, hits 2,    config 3 -way
smaller tournament 409, insn 49675213, accesses_since_last 131073, miss_sat 0, miss_rat 0.000006
smaller tournament 409 outcome, insn 49675536, accesses 368, hits 2,    config 3 -way
smaller tournament 410, insn 49796189, accesses_since_last 131073, miss_sat 0, miss_rat 0.000006
smaller tournament 410 outcome, insn 49798094, accesses 2007, hits 2,    config 3 -way
smaller tournament 411, insn 49918807, accesses_since_last 131073, miss_sat 0, miss_rat 0.000006
smaller tournament 411 outcome, insn 49918855, accesses 60, hits 2,    config 3 -way

sim: ** simulation statistics **
sim_num_insn               50000000 # total number of instructions committed
sim_num_refs               17683714 # total number of loads and stores committed
sim_num_loads              13430503 # total number of loads committed
sim_num_stores         4253211.0000 # total number of stores committed
sim_num_branches            8255502 # total number of branches committed
sim_elapsed_time                101 # total simulation time in seconds
sim_inst_rate           495049.5050 # simulation speed (in insts/sec)
sim_total_insn             53240440 # total number of instructions executed
sim_total_refs             18672574 # total number of loads and stores executed
sim_total_loads            14257400 # total number of loads executed
sim_total_stores       4415174.0000 # total number of stores executed
sim_total_branches          8809575 # total number of branches executed
sim_cycle                  22278229 # total simulation time in cycles
sim_IPC                      2.2443 # instructions per cycle
sim_CPI                      0.4456 # cycles per instruction
sim_exec_BW                  2.3898 # total instructions (mis-spec + committed) per cycle
sim_IPB                      6.0566 # instruction per branch
Cache_Config_Ratio     <error: variable is undefined> # Cache_Run_Ratio
IFQ_count                  77586096 # cumulative IFQ occupancy
IFQ_fcount                 17295969 # cumulative IFQ full count
ifq_occupancy                3.4826 # avg IFQ occupancy (insn's)
ifq_rate                     2.3898 # avg IFQ dispatch rate (insn/cycle)
ifq_latency                  1.4573 # avg IFQ occupant latency (cycle's)
ifq_full                     0.7764 # fraction of time (cycle's) IFQ was full
RUU_count                 307088241 # cumulative RUU occupancy
RUU_fcount                 11692847 # cumulative RUU full count
ruu_occupancy               13.7842 # avg RUU occupancy (insn's)
ruu_rate                     2.3898 # avg RUU dispatch rate (insn/cycle)
ruu_latency                  5.7680 # avg RUU occupant latency (cycle's)
ruu_full                     0.5249 # fraction of time (cycle's) RUU was full
LSQ_count                 108091487 # cumulative LSQ occupancy
LSQ_fcount                  2553797 # cumulative LSQ full count
lsq_occupancy                4.8519 # avg LSQ occupancy (insn's)
lsq_rate                     2.3898 # avg LSQ dispatch rate (insn/cycle)
lsq_latency                  2.0303 # avg LSQ occupant latency (cycle's)
lsq_full                     0.1146 # fraction of time (cycle's) LSQ was full
sim_slip                  467376515 # total number of slip cycles
avg_sim_slip                 9.3475 # the average slip between issue and retirement
bpred_bimod.lookups         8987590 # total number of bpred lookups
bpred_bimod.updates         8255497 # total number of updates
bpred_bimod.addr_hits       7912689 # total number of address-predicted hits
bpred_bimod.dir_hits        7912826 # total number of direction-predicted hits (includes addr-hits)
bpred_bimod.misses           342671 # total number of misses
bpred_bimod.jr_hits         1367533 # total number of address-predicted hits for JR's
bpred_bimod.jr_seen         1382532 # total number of JR's seen
bpred_bimod.jr_non_ras_hits.PP       124882 # total number of address-predicted hits for non-RAS JR's
bpred_bimod.jr_non_ras_seen.PP       139874 # total number of non-RAS JR's seen
bpred_bimod.bpred_addr_rate    0.9585 # branch address-prediction rate (i.e., addr-hits/updates)
bpred_bimod.bpred_dir_rate    0.9585 # branch direction-prediction rate (i.e., all-hits/updates)
bpred_bimod.bpred_jr_rate    0.9892 # JR address-prediction rate (i.e., JR addr-hits/JRs seen)
bpred_bimod.bpred_jr_non_ras_rate.PP    0.8928 # non-RAS JR addr-pred rate (ie, non-RAS JR hits/JRs seen)
bpred_bimod.retstack_pushes      1303210 # total number of address pushed onto ret-addr stack
bpred_bimod.retstack_pops      1259920 # total number of address popped off of ret-addr stack
bpred_bimod.used_ras.PP      1242658 # total number of RAS predictions used
bpred_bimod.ras_hits.PP      1242651 # total number of RAS hits
bpred_bimod.ras_rate.PP    1.0000 # RAS prediction rate (i.e., RAS hits/used RAS)
il1.reconfigurations              5 # total number of reconfigurations
il1.tournaments                 411 # total number of tournaments
il1. Power-Saving      54202530.0000 # Power Saving 
il1. Smaller Cache Cnt      54202529 # SCC 
il1. Largerer Cache Cnt             0 # LCC 
il1.accesses               54341795 # total number of accesses
il1.hits                   54341455 # total number of hits
il1.misses                      340 # total number of misses
il1.mnm_misses                    0 # total number MNM of misses
il1.replacements                  0 # total number of replacements
il1.writebacks                    0 # total number of writebacks
il1.invalidations                 0 # total number of invalidations
il1.miss_rate                0.0000 # miss rate (i.e., misses/ref)
il1.repl_rate                0.0000 # replacement rate (i.e., repls/ref)
il1.wb_rate                  0.0000 # writeback rate (i.e., wrbks/ref)
il1.inv_rate                 0.0000 # invalidation rate (i.e., invs/ref)
dl1.accesses               17975188 # total number of accesses
dl1.hits                   17860576 # total number of hits
dl1.misses                   114612 # total number of misses
dl1.mnm_misses                    0 # total number MNM of misses
dl1.replacements             114100 # total number of replacements
dl1.writebacks                19837 # total number of writebacks
dl1.invalidations                 0 # total number of invalidations
dl1.miss_rate                0.0064 # miss rate (i.e., misses/ref)
dl1.repl_rate                0.0063 # replacement rate (i.e., repls/ref)
dl1.wb_rate                  0.0011 # writeback rate (i.e., wrbks/ref)
dl1.inv_rate                 0.0000 # invalidation rate (i.e., invs/ref)
dl2.accesses                 134789 # total number of accesses
dl2.hits                     130950 # total number of hits
dl2.misses                     3839 # total number of misses
dl2.mnm_misses                    3 # total number MNM of misses
dl2.replacements                795 # total number of replacements
dl2.writebacks                  413 # total number of writebacks
dl2.invalidations                 0 # total number of invalidations
dl2.miss_rate                0.0285 # miss rate (i.e., misses/ref)
dl2.repl_rate                0.0059 # replacement rate (i.e., repls/ref)
dl2.wb_rate                  0.0031 # writeback rate (i.e., wrbks/ref)
dl2.inv_rate                 0.0000 # invalidation rate (i.e., invs/ref)
dl3.accesses                   4252 # total number of accesses
dl3.hits                        416 # total number of hits
dl3.misses                     3836 # total number of misses
dl3.mnm_misses                    0 # total number MNM of misses
dl3.replacements                  0 # total number of replacements
dl3.writebacks                    0 # total number of writebacks
dl3.invalidations                 0 # total number of invalidations
dl3.miss_rate                0.9022 # miss rate (i.e., misses/ref)
dl3.repl_rate                0.0000 # replacement rate (i.e., repls/ref)
dl3.wb_rate                  0.0000 # writeback rate (i.e., wrbks/ref)
dl3.inv_rate                 0.0000 # invalidation rate (i.e., invs/ref)
itlb.accesses              54341795 # total number of accesses
itlb.hits                  54341776 # total number of hits
itlb.misses                      19 # total number of misses
itlb.mnm_misses                   0 # total number MNM of misses
itlb.replacements                 0 # total number of replacements
itlb.writebacks                   0 # total number of writebacks
itlb.invalidations                0 # total number of invalidations
itlb.miss_rate               0.0000 # miss rate (i.e., misses/ref)
itlb.repl_rate               0.0000 # replacement rate (i.e., repls/ref)
itlb.wb_rate                 0.0000 # writeback rate (i.e., wrbks/ref)
itlb.inv_rate                0.0000 # invalidation rate (i.e., invs/ref)
dtlb.accesses              18155076 # total number of accesses
dtlb.hits                  18155003 # total number of hits
dtlb.misses                      73 # total number of misses
dtlb.mnm_misses                   0 # total number MNM of misses
dtlb.replacements                 0 # total number of replacements
dtlb.writebacks                   0 # total number of writebacks
dtlb.invalidations                0 # total number of invalidations
dtlb.miss_rate               0.0000 # miss rate (i.e., misses/ref)
dtlb.repl_rate               0.0000 # replacement rate (i.e., repls/ref)
dtlb.wb_rate                 0.0000 # writeback rate (i.e., wrbks/ref)
dtlb.inv_rate                0.0000 # invalidation rate (i.e., invs/ref)
sim_invalid_addrs                 0 # total non-speculative bogus addresses seen (debug var)
ld_text_base           0x0120000000 # program text (code) segment base
ld_text_size                 253952 # program text (code) size in bytes
ld_data_base           0x0140000000 # program initialized data segment base
ld_data_size                  76704 # program init'ed `.data' and uninit'ed `.bss' size in bytes
ld_stack_base          0x011ff9b000 # program stack segment base (highest address in stack)
ld_stack_size                 16384 # program initial stack size
ld_prog_entry          0x012000d040 # program entry point (initial PC)
ld_environ_base        0x011ff97000 # program environment base address address
ld_target_big_endian              0 # target executable endian-ness, non-zero if big endian
mem.page_count                  195 # total number of pages allocated
mem.page_mem                  1560k # total size of memory pages allocated
mem.ptab_misses             2614157 # total first level page table misses
mem.ptab_accesses         522976428 # total page table accesses
mem.ptab_miss_rate           0.0050 # first level page table miss rate

