sim-outorder: SimpleScalar/Alpha Tool Set version 3.0 of August, 2003.
Copyright (c) 1994-2003 by Todd M. Austin, Ph.D. and SimpleScalar, LLC.
All Rights Reserved. This version of SimpleScalar is licensed for academic
non-commercial use.  No portion of this work may be used by any commercial
entity, or for any commercial purpose, without the prior written permission
of SimpleScalar, LLC (info@simplescalar.com).

warning: section `.comment' ignored...
sim: command line: /home/jai/Desktop/simplescalar/simplesim-RMNM-Flex/sim-outorder -cache:il1 il1:1024:32:16:t:1:8192:131072:1 -cache:dl1 dl1:512:32:16:l -cache:dl2 dl2:1024:64:4:l -cache:dl3 dl3:4096:64:8:l -max:inst 50000000 -fastfwd 20000000 -redir:sim cache_RMNM-Flex_6.txt ../../spec2000binaries/equake00.peak.ev6 

sim: simulation started @ Sun Dec  6 09:32:12 2015, options follow:

sim-outorder: This simulator implements a very detailed out-of-order issue
superscalar processor with a two-level memory system and speculative
execution support.  This simulator is a performance simulator, tracking the
latency of all pipeline operations.

# -config                     # load configuration from a file
# -dumpconfig                 # dump configuration to a file
# -h                    false # print help message    
# -v                    false # verbose operation     
# -d                    false # enable debug message  
# -i                    false # start in Dlite debugger
-seed                       1 # random number generator seed (0 for timer seed)
# -q                    false # initialize and terminate immediately
# -chkpt               <null> # restore EIO trace execution from <fname>
# -redir:sim     cache_RMNM-Flex_6.txt # redirect simulator output to file (non-interactive only)
# -redir:prog          <null> # redirect simulated program output to file
-nice                       0 # simulator scheduling priority
-max:inst            50000000 # maximum number of inst's to execute
-fastfwd             20000000 # number of insts skipped before timing starts
# -ptrace              <null> # generate pipetrace, i.e., <fname|stdout|stderr> <range>
-fetch:ifqsize              4 # instruction fetch queue size (in insts)
-fetch:mplat                3 # extra branch mis-prediction latency
-fetch:speed                1 # speed of front-end of machine relative to execution core
-bpred                  bimod # branch predictor type {nottaken|taken|perfect|bimod|2lev|comb}
-bpred:bimod     2048 # bimodal predictor config (<table size>)
-bpred:2lev      1 1024 8 0 # 2-level predictor config (<l1size> <l2size> <hist_size> <xor>)
-bpred:comb      1024 # combining predictor config (<meta_table_size>)
-bpred:ras                  8 # return address stack size (0 for no return stack)
-bpred:btb       512 4 # BTB config (<num_sets> <associativity>)
# -bpred:spec_update       <null> # speculative predictors update in {ID|WB} (default non-spec)
-decode:width               4 # instruction decode B/W (insts/cycle)
-issue:width                4 # instruction issue B/W (insts/cycle)
-issue:inorder          false # run pipeline with in-order issue
-issue:wrongpath         true # issue instructions down wrong execution paths
-commit:width               4 # instruction commit B/W (insts/cycle)
-ruu:size                  16 # register update unit (RUU) size
-lsq:size                   8 # load/store queue (LSQ) size
-cache:dl1       dl1:512:32:16:l # l1 data cache config, i.e., {<config>|none}
-cache:dl1lat               1 # l1 data cache hit latency (in cycles)
-cache:dl2       dl2:1024:64:4:l # l2 data cache config, i.e., {<config>|none}
-cache:dl2lat               6 # l2 data cache hit latency (in cycles)
-cache:dl3       dl3:4096:64:8:l # l3 data cache config, i.e., {<config>|none}
-cache:dl3lat              10 # l3 data cache hit latency (in cycles)
-cache:il1       il1:1024:32:16:t:1:8192:131072:1 # l1 inst cache config, i.e., {<config>|dl1|dl2|none}
-cache:il1lat               1 # l1 instruction cache hit latency (in cycles)
-cache:il2                dl2 # l2 instruction cache config, i.e../../spec2000binaries/equake00.peak.ev6: Reading nodes.
., {<config>|dl2|none}
-cache:il2lat               6 # l2 instruction cache hit latency (in cycles)
-cache:il3                dl3 # l3 instruction cache config, i.e., {<config>|dl3|none}
-cache:il3lat              10 # l3 instruction cache hit latency (in cycles)
-cache:flush            false # flush caches on system calls
-cache:icompress        false # convert 64-bit inst addresses to 32-bit inst equivalents
-mem:lat         18 2 # memory access latency (<first_chunk> <inter_chunk>)
-mem:width                  8 # memory access bus width (in bytes)
-tlb:itlb        itlb:16:4096:4:l # instruction TLB config, i.e., {<config>|none}
-tlb:dtlb        dtlb:32:4096:4:l # data TLB config, i.e., {<config>|none}
-tlb:lat                   30 # inst/data TLB miss latency (in cycles)
-res:ialu                   4 # total number of integer ALU's available
-res:imult                  1 # total number of integer multiplier/dividers available
-res:memport                2 # total number of memory system ports available (to CPU)
-res:fpalu                  4 # total number of floating point ALU's available
-res:fpmult                 1 # total number of floating point multiplier/dividers available
# -pcstat              <null> # profile stat(s) against text addr's (mult uses ok)
-bugcompat              false # operate in backward-compatible bugs mode (for testing only)

  Pipetrace range arguments are formatted as follows:

    {{@|#}<start>}:{{@|#|+}<end>}

  Both ends of the range are optional, if neither are specified, the entire
  execution is traced.  Ranges that start with a `@' designate an address
  range to be traced, those that start with an `#' designate a cycle count
  range.  All other range values represent an instruction count range.  The
  second argument, if specified with a `+', indicates a value relative
  to the first argument, e.g., 1000:+100 == 1000:1100.  Program symbols may
  be used in all contexts.

    Examples:   -ptrace FOO.trc #0:#1000
                -ptrace BAR.trc @2000:
                -ptrace BLAH.trc :1500
                -ptrace UXXE.trc :
                -ptrace FOOBAR.trc @main:+278

  Branch predictor configuration examples for 2-level predictor:
    Configurations:   N, M, W, X
      N   # entries in first level (# of shift register(s))
      W   width of shift register(s)
      M   # entries in 2nd level (# of counters, or other FSM)
      X   (yes-1/no-0) xor history and address for 2nd level index
    Sample predictors:
      GAg     : 1, W, 2^W, 0
      GAp     : 1, W, M (M > 2^W), 0
      PAg     : N, W, 2^W, 0
      PAp     : N, W, M (M == 2^(N+W)), 0
      gshare  : 1, W, 2^W, 1
  Predictor `comb' combines a bimodal and a 2-level predictor.

  The cache config parameter <config> has the following format:

    <name>:<nsets>:<bsize>:<assoc>:<repl>

    <name>   - name of the cache being defined
    <nsets>  - number of sets in the cache
    <bsize>  - block size of the cache
    <assoc>  - associativity of the cache
    <repl>   - block replacement strategy, 'l'-LRU, 'f'-FIFO, 'r'-random

    Examples:   -cache:dl1 dl1:4096:32:1:l
                -dtlb dtlb:128:4096:32:r

  Cache levels can be unified by pointing a level of the instruction cache
  hierarchy at the data cache hiearchy using the "dl1" and "dl2" cache
  configuration arguments.  Most sensible combinations are supported, e.g.,

    A unified l2 cache (il2 is pointed at dl2):
      -cache:il1 il1:128:64:1:l -cache:il2 dl2
      -cache:dl1 dl1:256:32:1:l -cache:dl2 ul2:1024:64:2:l

    Or, a fully unified cache hierarchy (il1 pointed at dl1):
      -cache:il1 dl1
      -cache:dl1 ul1:256:32:1:l -cache:dl2 ul2:1024:64:2:l



sim: ** fast forwarding 20000000 insts **
sim: ** starting performance simulation **
smaller tournament 1, insn 120153, accesses_since_last 131073, miss_sat 0, miss_rat 0.002419
smaller tournament 1 outcome, insn 127659, accesses 8193, hits 0,    config 15 -way
smaller tournament 2, insn 248199, accesses_since_last 131073, miss_sat 0, miss_rat 0.001173
smaller tournament 2 outcome, insn 255659, accesses 8193, hits 0,    config 14 -way
smaller tournament 3, insn 375991, accesses_since_last 131073, miss_sat 0, miss_rat 0.000774
smaller tournament 3 outcome, insn 383535, accesses 8193, hits 0,    config 13 -way
smaller tournament 4, insn 503928, accesses_since_last 131073, miss_sat 0, miss_rat 0.000578
smaller tournament 4 outcome, insn 511449, accesses 8193, hits 0,    config 12 -way
smaller tournament 5, insn 632189, accesses_since_last 131073, miss_sat 0, miss_rat 0.000461
smaller tournament 5 outcome, insn 639657, accesses 8193, hits 0,    config 11 -way
smaller tournament 6, insn 760319, accesses_since_last 131073, miss_sat 0, miss_rat 0.000383
smaller tournament 6 outcome, insn 767919, accesses 8193, hits 0,    config 10 -way
smaller tournament 7, insn 888485, accesses_since_last 131073, miss_sat 0, miss_rat 0.000328
smaller tournament 7 outcome, insn 896000, accesses 8193, hits 0,    config 9 -way
smaller tournament 8, insn 1016672, accesses_since_last 131073, miss_sat 0, miss_rat 0.000287
smaller tournament 8 outcome, insn 1024227, accesses 8193, hits 0,    config 8 -way
smaller tournament 9, insn 1144954, accesses_since_last 131073, miss_sat 0, miss_rat 0.000255
smaller tournament 9 outcome, insn 1152495, accesses 8193, hits 0,    config 7 -way
smaller tournament 10, insn 1273246, accesses_since_last 131073, miss_sat 0, miss_rat 0.000229
smaller tournament 10 outcome, insn 1280762, accesses 8193, hits 0,    config 6 -way
smaller tournament 11, insn 1401427, accesses_since_last 131073, miss_sat 0, miss_rat 0.000208
smaller tournament 11 outcome, insn 1408933, accesses 8193, hits 0,    config 5 -way
smaller tournament 12, insn 1529588, accesses_since_last 131073, miss_sat 0, miss_rat 0.000191
smaller tournament 12 outcome, insn 1537134, accesses 8193, hits 0,    config 4 -way
smaller tournament 13, insn 1657674, accesses_since_last 131073, miss_sat 0, miss_rat 0.000187
smaller tournament 13 outcome, insn 1665188, accesses 8193, hits 0,    config 3 -way
smaller tournament 14, insn 1785848, accesses_since_last 131073, miss_sat 0, miss_rat 0.000174
smaller tournament 14 outcome, insn 1793392, accesses 8193, hits 0,    config 2 -way
smaller tournament 15, insn 1913979, accesses_since_last 131073, miss_sat 0, miss_rat 0.000162
smaller tournament 15 outcome, insn 1914239, accesses 286, hits 2,    config 2 -way
smaller tournament 16, insn 2034725, accesses_since_last 131073, miss_sat 0, miss_rat 0.000152
smaller tournament 16 outcome, insn 2034902, accesses 198, hits 2,    config 2 -way
smaller tournament 17, insn 2155221, accesses_since_last 131073, miss_sat 0, miss_rat 0.000144
smaller tournament 17 outcome, insn 2155705, accesses 516, hits 2,    config 2 -way
smaller tournament 18, insn 2276091, accesses_since_last 131073, miss_sat 0, miss_rat 0.000136
smaller tournament 18 outcome, insn 2276212, accesses 119, hits 2,    config 2 -way
smaller tournament 19, insn 2396925, accesses_since_last 131073, miss_sat 0, miss_rat 0.000129
smaller tournament 19 outcome, insn 2397585, accesses 710, hits 2,    config 2 -way
smaller tournament 20, insn 2518226, accesses_since_last 131073, miss_sat 0, miss_rat 0.000123
smaller tournament 20 outcome, insn 2519510, accesses 1319, hits 2,    config 2 -way
smaller tournament 21, insn 2640237, accesses_since_last 131073, miss_sat 0, miss_rat 0.000117
smaller tournament 21 outcome, insn 2641606, accesses 1441, hits 2,    config 2 -way
smaller tournament 22, insn 2762423, accesses_since_last 131073, miss_sat 0, miss_rat 0.000112
smaller tournament 22 outcome, insn 2763522, accesses 1136, hits 2,    config 2 -way
smaller tournament 23, insn 2884315, accesses_since_last 131073, miss_sat 0, miss_rat 0.000107
smaller tournament 23 outcome, insn 2885505, accesses 1264, hits 2,    config 2 -way
smaller tournament 24, insn 3006054, accesses_since_last 131073, miss_sat 0, miss_rat 0.000103
smaller tournament 24 outcome, insn 3006351, accesses 372, hits 2,    config 2 -way
smaller tournament 25, insn 3127145, accesses_since_last 131073, miss_sat 0, miss_rat 0.000099
smaller tournament 25 outcome, insn 3127219, accesses 73, hits 2,    config 2 -way
smaller tournament 26, insn 3247823, accesses_since_last 131073, miss_sat 0, miss_rat 0.000095
smaller tournament 26 outcome, insn 3248113, accesses 365, hits 2,    config 2 -way
smaller tournament 27, insn 3368884, accesses_since_last 131073, miss_sat 0, miss_rat 0.000092
smaller tournament 27 outcome, insn 3369652, accesses 786, hits 2,    config 2 -way
smaller tournament 28, insn 3490269, accesses_since_last 131073, miss_sat 0, miss_rat 0.000089
smaller tournament 28 outcome, insn 3490885, accesses 632, hits 2,    config 2 -way
smaller tournament 29, insn 3611312, accesses_since_last 131073, miss_sat 0, miss_rat 0.000086
smaller tournament 29 outcome, insn 3611345, accesses 34, hits 2,    config 2 -way
smaller tournament 30, insn 3731961, accesses_since_last 131073, miss_sat 0, miss_rat 0.000083
smaller tournament 30 outcome, insn 3731997, accesses 34, hits 2,    config 2 -way
smaller tournament 31, insn 3852753, accesses_since_last 131073, miss_sat 0, miss_rat 0.000080
smaller tournament 31 outcome, insn 3854055, accesses 1389, hits 2,    config 2 -way
smaller tournament 32, insn 3974673, accesses_since_last 131073, miss_sat 0, miss_rat 0.000078
smaller tournament 32 outcome, insn 3976454, accesses 1879, hits 2,    config 2 -way
smaller tournament 33, insn 4097128, accesses_since_last 131073, miss_sat 0, miss_rat 0.000076
smaller tournament 33 outcome, insn 4097376, accesses 266, hits 2,    config 2 -way
smaller tournament 34, insn 4217983, accesses_since_last 131073, miss_sat 0, miss_rat 0.000074
smaller tournament 34 outcome, insn 4218410, accesses 453, hits 2,    config 2 -way
smaller tournament 35, insn 4339030, accesses_since_last 131073, miss_sat 0, miss_rat 0.000071
smaller tournament 35 outcome, insn 4339263, accesses 236, hits 2,    config 2 -way
smaller tournament 36, insn 4459630, accesses_since_last 131073, miss_sat 0, miss_rat 0.000070
smaller tournament 36 outcome, insn 4460981, accesses 1386, hits 2,    config 2 -way
smaller tournament 37, insn 4581717, accesses_since_last 131073, miss_sat 0, miss_rat 0.000068
smaller tournament 37 outcome, insn 4581734, accesses 18, hits 2,    config 2 -way
smaller tournament 38, insn 4702531, accesses_since_last 131073, miss_sat 0, miss_rat 0.000066
smaller tournament 38 outcome, insn 4702743, accesses 266, hits 2,    config 2 -way
smaller tournament 39, insn 4823593, accesses_since_last 131073, miss_sat 0, miss_rat 0.000064
smaller tournament 39 outcome, insn 4824020, accesses 453, hits 2,    config 2 -way
smaller tournament 40, insn 4944627, accesses_since_last 131073, miss_sat 0, miss_rat 0.000063
smaller tournament 40 outcome, insn 4946320, accesses 1766, hits 2,    config 2 -way
smaller tournament 41, insn 5066949, accesses_since_last 131073, miss_sat 0, miss_rat 0.000061
smaller tournament 41 outcome, insn 5067628, accesses 696, hits 2,    config 2 -way
smaller tournament 42, insn 5188294, accesses_since_last 131073, miss_sat 0, miss_rat 0.000060
smaller tournament 42 outcome, insn 5189596, accesses 1338, hits 2,    config 2 -way
smaller tournament 43, insn 5310302, accesses_since_last 131073, miss_sat 0, miss_rat 0.000059
smaller tournament 43 outcome, insn 5310569, accesses 293, hits 2,    config 2 -way
smaller tournament 44, insn 5431253, accesses_since_last 131073, miss_sat 0, miss_rat 0.000057
smaller tournament 44 outcome, insn 5431907, accesses 670, hits 2,    config 2 -way
smaller tournament 45, insn 5552612, accesses_since_last 131073, miss_sat 0, miss_rat 0.000056
smaller tournament 45 outcome, insn 5552660, accesses 56, hits 2,    config 2 -way
smaller tournament 46, insn 5673347, accesses_since_last 131073, miss_sat 0, miss_rat 0.000055
smaller tournament 46 outcome, insn 5674551, accesses 1241, hits 2,    config 2 -way
smaller tournament 47, insn 5795268, accesses_since_last 131073, miss_sat 0, miss_rat 0.000054
smaller tournament 47 outcome, insn 5795554, accesses 314, hits 2,    config 2 -way
smaller tournament 48, insn 5916202, accesses_since_last 131073, miss_sat 0, miss_rat 0.000053
smaller tournament 48 outcome, insn 5916292, accesses 101, hits 2,    config 2 -way
smaller tournament 49, insn 6037005, accesses_since_last 131073, miss_sat 0, miss_rat 0.000052
smaller tournament 49 outcome, insn 6037090, accesses 85, hits 2,    config 2 -way
smaller tournament 50, insn 6157960, accesses_since_last 131073, miss_sat 0, miss_rat 0.000051
smaller tournament 50 outcome, insn 6157974, accesses 14, hits 2,    config 2 -way
smaller tournament 51, insn 6278732, accesses_since_last 131073, miss_sat 0, miss_rat 0.000050
smaller tournament 51 outcome, insn 6278747, accesses 16, hits 2,    config 2 -way
smaller tournament 52, insn 6399387, accesses_since_last 131073, miss_sat 0, miss_rat 0.000049
smaller tournament 52 outcome, insn 6400468, accesses 1116, hits 2,    config 2 -way
smaller tournament 53, insn 6521098, accesses_since_last 131073, miss_sat 0, miss_rat 0.000048
smaller tournament 53 outcome, insn 6521416, accesses 337, hits 2,    config 2 -way
smaller tournament 54, insn 6642024, accesses_since_last 131073, miss_sat 0, miss_rat 0.000047
smaller tournament 54 outcome, insn 6642364, accesses 357, hits 2,    config 2 -way
smaller tournament 55, insn 6763004, accesses_since_last 131073, miss_sat 0, miss_rat 0.000046
smaller tournament 55 outcome, insn 6764014, accesses 1044, hits 2,    config 2 -way
smaller tournament 56, insn 6884539, accesses_since_last 131073, miss_sat 0, miss_rat 0.000045
smaller tournament 56 outcome, insn 6884956, accesses 434, hits 2,    config 2 -way
smaller tournament 57, insn 7005631, accesses_since_last 131073, miss_sat 0, miss_rat 0.000044
smaller tournament 57 outcome, insn 7005746, accesses 116, hits 2,    config 2 -way
smaller tournament 58, insn 7126386, accesses_since_last 131073, miss_sat 0, miss_rat 0.000044
smaller tournament 58 outcome, insn 7126877, accesses 507, hits 2,    config 2 -way
smaller tournament 59, insn 7247534, accesses_since_last 131073, miss_sat 0, miss_rat 0.000043
smaller tournament 59 outcome, insn 7249189, accesses 1738, hits 2,    config 2 -way
smaller tournament 60, insn 7369764, accesses_since_last 131073, miss_sat 0, miss_rat 0.000042
smaller tournament 60 outcome, insn 7369894, accesses 131, hits 2,    config 2 -way
smaller tournament 61, insn 7490360, accesses_since_last 131073, miss_sat 0, miss_rat 0.000042
smaller tournament 61 outcome, insn 7490409, accesses 47, hits 2,    config 2 -way
smaller tournament 62, insn 7611044, accesses_since_last 131073, miss_sat 0, miss_rat 0.000041
smaller tournament 62 outcome, insn 7611090, accesses 47, hits 2,    config 2 -way
smaller tournament 63, insn 7731435, accesses_since_last 131073, miss_sat 0, miss_rat 0.000040
smaller tournament 63 outcome, insn 7732205, accesses 830, hits 2,    config 2 -way
smaller tournament 64, insn 7853027, accesses_since_last 131073, miss_sat 0, miss_rat 0.000040
smaller tournament 64 outcome, insn 7853560, accesses 567, hits 2,    config 2 -way
smaller tournament 65, insn 7974229, accesses_since_last 131073, miss_sat 0, miss_rat 0.000039
smaller tournament 65 outcome, insn 7974477, accesses 277, hits 2,    config 2 -way
smaller tournament 66, insn 8095274, accesses_since_last 131073, miss_sat 0, miss_rat 0.000038
smaller tournament 66 outcome, insn 8095368, accesses 122, hits 2,    config 2 -way
smaller tournament 67, insn 8216174, accesses_since_last 131073, miss_sat 0, miss_rat 0.000038
smaller tournament 67 outcome, insn 8216507, accesses 431, hits 2,    config 2 -way
smaller tournament 68, insn 8337247, accesses_since_last 131073, miss_sat 0, miss_rat 0.000037
smaller tournament 68 outcome, insn 8338428, accesses 1232, hits 2,    config 2 -way
smaller tournament 69, insn 8459114, accesses_since_last 131073, miss_sat 0, miss_rat 0.000037
smaller tournament 69 outcome, insn 8460749, accesses 1706, hits 2,    config 2 -way
smaller tournament 70, insn 8581355, accesses_since_last 131073, miss_sat 0, miss_rat 0.000036
smaller tournament 70 outcome, insn 8581358, accesses 3, hits 2,    config 2 -way
smaller tournament 71, insn 8702052, accesses_since_last 131073, miss_sat 0, miss_rat 0.000036
smaller tournament 71 outcome, insn 8702081, accesses 27, hits 2,    config 2 -way
smaller tournament 72, insn 8822788, accesses_since_last 131073, miss_sat 0, miss_rat 0.000035
smaller tournament 72 outcome, insn 8822898, accesses 109, hits 2,    config 2 -way
smaller tournament 73, insn 8943459, accesses_since_last 131073, miss_sat 0, miss_rat 0.000035
smaller tournament 73 outcome, insn 8944160, accesses 717, hits 2,    config 2 -way
smaller tournament 74, insn 9064431, accesses_since_last 131073, miss_sat 0, miss_rat 0.000034
smaller tournament 74 outcome, insn 9064447, accesses 18, hits 2,    config 2 -way
smaller tournament 75, insn 9185029, accesses_since_last 131073, miss_sat 0, miss_rat 0.000034
smaller tournament 75 outcome, insn 9185125, accesses 94, hits 2,    config 2 -way
smaller tournament 76, insn 9305548, accesses_since_last 131073, miss_sat 0, miss_rat 0.000033
smaller tournament 76 outcome, insn 9306479, accesses 984, hits 2,    config 2 -way
smaller tournament 77, insn 9426913, accesses_since_last 131073, miss_sat 0, miss_rat 0.000033
smaller tournament 77 outcome, insn 9427229, accesses 334, hits 2,    config 2 -way
smaller tournament 78, insn 9547842, accesses_since_last 131073, miss_sat 0, miss_rat 0.000033
smaller tournament 78 outcome, insn 9548599, accesses 791, hits 2,    config 2 -way
smaller tournament 79, insn 9668810, accesses_since_last 131073, miss_sat 0, miss_rat 0.000032
smaller tournament 79 outcome, insn 9669180, accesses 422, hits 2,    config 2 -way
smaller tournament 80, insn 9790029, accesses_since_last 131073, miss_sat 0, miss_rat 0.000032
smaller tournament 80 outcome, insn 9790049, accesses 22, hits 2,    config 2 -way
smaller tournament 81, insn 9910845, accesses_since_last 131073, miss_sat 0, miss_rat 0.000031
smaller tournament 81 outcome, insn 9910969, accesses 144, hits 2,    config 2 -way
smaller tournament 82, insn 10031720, accesses_since_last 131073, miss_sat 0, miss_rat 0.000031
smaller tournament 82 outcome, insn 10031985, accesses 281, hits 2,    config 2 -way
smaller tournament 83, insn 10152536, accesses_since_last 131073, miss_sat 0, miss_rat 0.000031
smaller tournament 83 outcome, insn 10153689, accesses 1241, hits 2,    config 2 -way
smaller tournament 84, insn 10274134, accesses_since_last 131073, miss_sat 0, miss_rat 0.000030
smaller tournament 84 outcome, insn 10274389, accesses 265, hits 2,    config 2 -way
smaller tournament 85, insn 10394900, accesses_since_last 131073, miss_sat 0, miss_rat 0.000030
smaller tournament 85 outcome, insn 10395703, accesses 847, hits 2,    config 2 -way
smaller tournament 86, insn 10516127, accesses_since_last 131073, miss_sat 0, miss_rat 0.000030
smaller tournament 86 outcome, insn 10516661, accesses 551, hits 2,    config 2 -way
smaller tournament 87, insn 10637392, accesses_since_last 131073, miss_sat 0, miss_rat 0.000029
smaller tournament 87 outcome, insn 10638736, accesses 1399, hits 2,    config 2 -way
smaller tournament 88, insn 10759319, accesses_since_last 131073, miss_sat 0, miss_rat 0.000029
smaller tournament 88 outcome, insn 10759807, accesses 505, hits 2,    config 2 -way
smaller tournament 89, insn 10880499, accesses_since_last 131073, miss_sat 0, miss_rat 0.000029
smaller tournament 89 outcome, insn 10881721, accesses 1266, hits 2,    config 2 -way
smaller tournament 90, insn 11001736, accesses_since_last 131073, miss_sat 0, miss_rat 0.000028
smaller tournament 90 outcome, insn 11001887, accesses 149, hits 2,    config 2 -way
smaller tournament 91, insn 11122236, accesses_since_last 131073, miss_sat 0, miss_rat 0.000028
smaller tournament 91 outcome, insn 11123060, accesses 859, hits 2,    config 2 -way
smaller tournament 92, insn 11243675, accesses_since_last 131073, miss_sat 0, miss_rat 0.000028
smaller tournament 92 outcome, insn 11243903, accesses 227, hits 2,    config 2 -way
smaller tournament 93, insn 11363937, accesses_since_last 131073, miss_sat 0, miss_rat 0.000028
smaller tournament 93 outcome, insn 11365698, accesses 1886, hits 2,    config 2 -way
smaller tournament 94, insn 11486131, accesses_since_last 131073, miss_sat 0, miss_rat 0.000027
smaller tournament 94 outcome, insn 11486137, accesses 9, hits 2,    config 2 -way
smaller tournament 95, insn 11606138, accesses_since_last 131073, miss_sat 0, miss_rat 0.000027
smaller tournament 95 outcome, insn 11606154, accesses 19, hits 2,    config 2 -way
smaller tournament 96, insn 11726520, accesses_since_last 131073, miss_sat 0, miss_rat 0.000027
smaller tournament 96 outcome, insn 11726640, accesses 119, hits 2,    config 2 -way
smaller tournament 97, insn 11847245, accesses_since_last 131073, miss_sat 0, miss_rat 0.000026
smaller tournament 97 outcome, insn 11847406, accesses 217, hits 2,    config 2 -way
smaller tournament 98, insn 11968212, accesses_since_last 131073, miss_sat 0, miss_rat 0.000026
smaller tournament 98 outcome, insn 11969679, accesses 1519, hits 2,    config 2 -way
smaller tournament 99, insn 12090299, accesses_since_last 131073, miss_sat 0, miss_rat 0.000026
smaller tournament 99 outcome, insn 12090325, accesses 24, hits 2,    config 2 -way
smaller tournament 100, insn 12211105, accesses_since_last 131073, miss_sat 0, miss_rat 0.000026
smaller tournament 100 outcome, insn 12211388, accesses 309, hits 2,    config 2 -way
smaller tournament 101, insn 12332065, accesses_since_last 131073, miss_sat 0, miss_rat 0.000025
smaller tournament 101 outcome, insn 12332148, accesses 83, hits 2,    config 2 -way
smaller tournament 102, insn 12452923, accesses_since_last 131073, miss_sat 0, miss_rat 0.000025
smaller tournament 102 outcome, insn 12453400, accesses 493, hits 2,    config 2 -way
smaller tournament 103, insn 12574002, accesses_since_last 131073, miss_sat 0, miss_rat 0.000025
smaller tournament 103 outcome, insn 12575018, accesses 1084, hits 2,    config 2 -way
smaller tournament 104, insn 12695714, accesses_since_last 131073, miss_sat 0, miss_rat 0.000025
smaller tournament 104 outcome, insn 12695950, accesses 252, hits 2,    config 2 -way
smaller tournament 105, insn 12816532, accesses_since_last 131073, miss_sat 0, miss_rat 0.000024
smaller tournament 105 outcome, insn 12816700, accesses 169, hits 2,    config 2 -way
smaller tournament 106, insn 12937186, accesses_since_last 131073, miss_sat 0, miss_rat 0.000024
smaller tournament 106 outcome, insn 12937208, accesses 30, hits 2,    config 2 -way
smaller tournament 107, insn 13057970, accesses_since_last 131073, miss_sat 0, miss_rat 0.000024
smaller tournament 107 outcome, insn 13058017, accesses 73, hits 2,    config 2 -way
smaller tournament 108, insn 13178574, accesses_since_last 131073, miss_sat 0, miss_rat 0.000024
smaller tournament 108 outcome, insn 13179504, accesses 994, hits 2,    config 2 -way
smaller tournament 109, insn 13299871, accesses_since_last 131073, miss_sat 0, miss_rat 0.000024
smaller tournament 109 outcome, insn 13301502, accesses 1701, hits 2,    config 2 -way
smaller tournament 110, insn 13422240, accesses_since_last 131073, miss_sat 0, miss_rat 0.000023
smaller tournament 110 outcome, insn 13423846, accesses 1677, hits 2,    config 2 -way
smaller tournament 111, insn 13544555, accesses_since_last 131073, miss_sat 0, miss_rat 0.000023
smaller tournament 111 outcome, insn 13545827, accesses 1318, hits 2,    config 2 -way
smaller tournament 112, insn 13666396, accesses_since_last 131073, miss_sat 0, miss_rat 0.000023
smaller tournament 112 outcome, insn 13666497, accesses 121, hits 2,    config 2 -way
smaller tournament 113, insn 13787301, accesses_since_last 131073, miss_sat 0, miss_rat 0.000023
smaller tournament 113 outcome, insn 13787525, accesses 225, hits 2,    config 2 -way
smaller tournament 114, insn 13908162, accesses_since_last 131073, miss_sat 0, miss_rat 0.000022
smaller tournament 114 outcome, insn 13909296, accesses 1179, hits 2,    config 2 -way
smaller tournament 115, insn 14029999, accesses_since_last 131073, miss_sat 0, miss_rat 0.000022
smaller tournament 115 outcome, insn 14031254, accesses 1290, hits 2,    config 2 -way
smaller tournament 116, insn 14151845, accesses_since_last 131073, miss_sat 0, miss_rat 0.000022
smaller tournament 116 outcome, insn 14151855, accesses 9, hits 2,    config 2 -way
smaller tournament 117, insn 14272519, accesses_since_last 131073, miss_sat 0, miss_rat 0.000022
smaller tournament 117 outcome, insn 14272679, accesses 171, hits 2,    config 2 -way
smaller tournament 118, insn 14393388, accesses_since_last 131073, miss_sat 0, miss_rat 0.000022
smaller tournament 118 outcome, insn 14394474, accesses 1131, hits 2,    config 2 -way
smaller tournament 119, insn 14514988, accesses_since_last 131073, miss_sat 0, miss_rat 0.000022
smaller tournament 119 outcome, insn 14516789, accesses 1871, hits 2,    config 2 -way
smaller tournament 120, insn 14637541, accesses_since_last 131073, miss_sat 0, miss_rat 0.000021
smaller tournament 120 outcome, insn 14637584, accesses 44, hits 2,    config 2 -way
smaller tournament 121, insn 14758216, accesses_since_last 131073, miss_sat 0, miss_rat 0.000021
smaller tournament 121 outcome, insn 14758320, accesses 102, hits 2,    config 2 -way
smaller tournament 122, insn 14878826, accesses_since_last 131073, miss_sat 0, miss_rat 0.000021
smaller tournament 122 outcome, insn 14879666, accesses 869, hits 2,    config 2 -way
smaller tournament 123, insn 15000347, accesses_since_last 131073, miss_sat 0, miss_rat 0.000021
smaller tournament 123 outcome, insn 15001671, accesses 1360, hits 2,    config 2 -way
smaller tournament 124, insn 15122399, accesses_since_last 131073, miss_sat 0, miss_rat 0.000021
smaller tournament 124 outcome, insn 15122537, accesses 137, hits 2,    config 2 -way
smaller tournament 125, insn 15243435, accesses_since_last 131073, miss_sat 0, miss_rat 0.000021
smaller tournament 125 outcome, insn 15243874, accesses 457, hits 2,    config 2 -way
smaller tournament 126, insn 15364650, accesses_since_last 131073, miss_sat 0, miss_rat 0.000020
smaller tournament 126 outcome, insn 15364675, accesses 25, hits 2,    config 2 -way
smaller tournament 127, insn 15485495, accesses_since_last 131073, miss_sat 0, miss_rat 0.000020
smaller tournament 127 outcome, insn 15486136, accesses 670, hits 2,    config 2 -way
smaller tournament 128, insn 15606797, accesses_since_last 131073, miss_sat 0, miss_rat 0.000020
smaller tournament 128 outcome, insn 15606951, accesses 154, hits 2,    config 2 -way
smaller tournament 129, insn 15727874, accesses_since_last 131073, miss_sat 0, miss_rat 0.000020
smaller tournament 129 outcome, insn 15728056, accesses 275, hits 2,    config 2 -way
smaller tournament 130, insn 15848652, accesses_since_last 131073, miss_sat 0, miss_rat 0.000020
smaller tournament 130 outcome, insn 15848668, accesses 16, hits 2,    config 2 -way
smaller tournament 131, insn 15969444, accesses_since_last 131073, miss_sat 0, miss_rat 0.000020
smaller tournament 131 outcome, insn 15969512, accesses 104, hits 2,    config 2 -way
smaller tournament 132, insn 16090189, accesses_since_last 131073, miss_sat 0, miss_rat 0.000019
smaller tournament 132 outcome, insn 16090377, accesses 281, hits 2,    config 2 -way
smaller tournament 133, insn 16211207, accesses_since_last 131073, miss_sat 0, miss_rat 0.000019
smaller tournament 133 outcome, insn 16211353, accesses 145, hits 2,    config 2 -way
smaller tournament 134, insn 16332064, accesses_since_last 131073, miss_sat 0, miss_rat 0.000019
smaller tournament 134 outcome, insn 16332728, accesses 681, hits 2,    config 2 -way
smaller tournament 135, insn 16453365, accesses_since_last 131073, miss_sat 0, miss_rat 0.000019
smaller tournament 135 outcome, insn 16453556, accesses 199, hits 2,    config 2 -way
smaller tournament 136, insn 16574133, accesses_since_last 131073, miss_sat 0, miss_rat 0.000019
smaller tournament 136 outcome, insn 16574259, accesses 128, hits 2,    config 2 -way
smaller tournament 137, insn 16694982, accesses_since_last 131073, miss_sat 0, miss_rat 0.000019
smaller tournament 137 outcome, insn 16696063, accesses 1116, hits 2,    config 2 -way
smaller tournament 138, insn 16816592, accesses_since_last 131073, miss_sat 0, miss_rat 0.000019
smaller tournament 138 outcome, insn 16816712, accesses 140, hits 2,    config 2 -way
smaller tournament 139, insn 16937373, accesses_since_last 131073, miss_sat 0, miss_rat 0.000018
smaller tournament 139 outcome, insn 16937400, accesses 27, hits 2,    config 2 -way
smaller tournament 140, insn 17058158, accesses_since_last 131073, miss_sat 0, miss_rat 0.000018
smaller tournament 140 outcome, insn 17059503, accesses 1382, hits 2,    config 2 -way
smaller tournament 141, insn 17180122, accesses_since_last 131073, miss_sat 0, miss_rat 0.000018
smaller tournament 141 outcome, insn 17181299, accesses 1211, hits 2,    config 2 -way
smaller tournament 142, insn 17301819, accesses_since_last 131073, miss_sat 0, miss_rat 0.000018
smaller tournament 142 outcome, insn 17303278, accesses 1514, hits 2,    config 2 -way
smaller tournament 143, insn 17423902, accesses_since_last 131073, miss_sat 0, miss_rat 0.000018
smaller tournament 143 outcome, insn 17425709, accesses 1887, hits 2,    config 2 -way
smaller tournament 144, insn 17546372, accesses_since_last 131073, miss_sat 0, miss_rat 0.000018
smaller tournament 144 outcome, insn 17547134, accesses 786, hits 2,    config 2 -way
smaller tournament 145, insn 17667864, accesses_since_last 131073, miss_sat 0, miss_rat 0.000018
smaller tournament 145 outcome, insn 17669215, accesses 1391, hits 2,    config 2 -way
smaller tournament 146, insn 17789916, accesses_since_last 131073, miss_sat 0, miss_rat 0.000018
smaller tournament 146 outcome, insn 17791366, accesses 1511, hits 2,    config 2 -way
smaller tournament 147, insn 17911951, accesses_since_last 131073, miss_sat 0, miss_rat 0.000017
smaller tournament 147 outcome, insn 17913133, accesses 1234, hits 2,    config 2 -way
smaller tournament 148, insn 18033747, accesses_since_last 131073, miss_sat 0, miss_rat 0.000017
smaller tournament 148 outcome, insn 18035156, accesses 1462, hits 2,    config 2 -way
smaller tournament 149, insn 18155795, accesses_since_last 131073, miss_sat 0, miss_rat 0.000017
smaller tournament 149 outcome, insn 18157445, accesses 1720, hits 2,    config 2 -way
smaller tournament 150, insn 18278110, accesses_since_last 131073, miss_sat 0, miss_rat 0.000017
smaller tournament 150 outcome, insn 18278212, accesses 101, hits 2,    config 2 -way
smaller tournament 151, insn 18398721, accesses_since_last 131073, miss_sat 0, miss_rat 0.000017
smaller tournament 151 outcome, insn 18398727, accesses 6, hits 2,    config 2 -way
smaller tournament 152, insn 18519542, accesses_since_last 131073, miss_sat 0, miss_rat 0.000017
smaller tournament 152 outcome, insn 18520435, accesses 929, hits 2,    config 2 -way
smaller tournament 153, insn 18641184, accesses_since_last 131073, miss_sat 0, miss_rat 0.000017
smaller tournament 153 outcome, insn 18642758, accesses 1662, hits 2,    config 2 -way
smaller tournament 154, insn 18763559, accesses_since_last 131073, miss_sat 0, miss_rat 0.000017
smaller tournament 154 outcome, insn 18763589, accesses 28, hits 2,    config 2 -way
smaller tournament 155, insn 18884294, accesses_since_last 131073, miss_sat 0, miss_rat 0.000017
smaller tournament 155 outcome, insn 18885183, accesses 923, hits 2,    config 2 -way
smaller tournament 156, insn 19005714, accesses_since_last 131073, miss_sat 0, miss_rat 0.000016
smaller tournament 156 outcome, insn 19006418, accesses 735, hits 2,    config 2 -way
smaller tournament 157, insn 19127009, accesses_since_last 131073, miss_sat 0, miss_rat 0.000016
smaller tournament 157 outcome, insn 19128060, accesses 1100, hits 2,    config 2 -way
smaller tournament 158, insn 19248666, accesses_since_last 131073, miss_sat 0, miss_rat 0.000016
smaller tournament 158 outcome, insn 19250050, accesses 1436, hits 2,    config 2 -way
smaller tournament 159, insn 19370567, accesses_since_last 131073, miss_sat 0, miss_rat 0.000016
smaller tournament 159 outcome, insn 19372019, accesses 1504, hits 2,    config 2 -way
smaller tournament 160, insn 19492600, accesses_since_last 131073, miss_sat 0, miss_rat 0.000016
smaller tournament 160 outcome, insn 19493859, accesses 1312, hits 2,    config 2 -way
smaller tournament 161, insn 19614467, accesses_since_last 131073, miss_sat 0, miss_rat 0.000016
smaller tournament 161 outcome, insn 19614781, accesses 340, hits 2,    config 2 -way
smaller tournament 162, insn 19735370, accesses_since_last 131073, miss_sat 0, miss_rat 0.000016
smaller tournament 162 outcome, insn 19736256, accesses 934, hits 2,    config 2 -way
smaller tournament 163, insn 19856722, accesses_since_last 131073, miss_sat 0, miss_rat 0.000016
smaller tournament 163 outcome, insn 19856751, accesses 31, hits 2,    config 2 -way
smaller tournament 164, insn 19977266, accesses_since_last 131073, miss_sat 0, miss_rat 0.000016
smaller tournament 164 outcome, insn 19978554, accesses 1322, hits 2,    config 2 -way
smaller tournament 165, insn 20098993, accesses_since_last 131073, miss_sat 0, miss_rat 0.000016
smaller tournament 165 outcome, insn 20099054, accesses 73, hits 2,    config 2 -way
smaller tournament 166, insn 20219758, accesses_since_last 131073, miss_sat 0, miss_rat 0.000015
smaller tournament 166 outcome, insn 20221099, accesses 1437, hits 2,    config 2 -way
smaller tournament 167, insn 20341839, accesses_since_last 131073, miss_sat 0, miss_rat 0.000015
smaller tournament 167 outcome, insn 20343115, accesses 1345, hits 2,    config 2 -way
smaller tournament 168, insn 20463908, accesses_since_last 131073, miss_sat 0, miss_rat 0.000015
smaller tournament 168 outcome, insn 20465237, accesses 1416, hits 2,    config 2 -way
smaller tournament 169, insn 20586052, accesses_since_last 131073, miss_sat 0, miss_rat 0.000015
smaller tournament 169 outcome, insn 20586153, accesses 121, hits 2,    config 2 -way
smaller tournament 170, insn 20706731, accesses_since_last 131073, miss_sat 0, miss_rat 0.000015
smaller tournament 170 outcome, insn 20707879, accesses 1183, hits 2,    config 2 -way
smaller tournament 171, insn 20828409, accesses_since_last 131073, miss_sat 0, miss_rat 0.000015
smaller tournament 171 outcome, insn 20829834, accesses 1493, hits 2,    config 2 -way
smaller tournament 172, insn 20950449, accesses_since_last 131073, miss_sat 0, miss_rat 0.000015
smaller tournament 172 outcome, insn 20952165, accesses 1786, hits 2,    config 2 -way
smaller tournament 173, insn 21072871, accesses_since_last 131073, miss_sat 0, miss_rat 0.000015
smaller tournament 173 outcome, insn 21073179, accesses 341, hits 2,    config 2 -way
smaller tournament 174, insn 21193767, accesses_since_last 131073, miss_sat 0, miss_rat 0.000015
smaller tournament 174 outcome, insn 21193779, accesses 13, hits 2,    config 2 -way
smaller tournament 175, insn 21314562, accesses_since_last 131073, miss_sat 0, miss_rat 0.000015
smaller tournament 175 outcome, insn 21314919, accesses 454, hits 2,    config 2 -way
smaller tournament 176, insn 21435679, accesses_since_last 131073, miss_sat 0, miss_rat 0.000015
smaller tournament 176 outcome, insn 21435804, accesses 123, hits 2,    config 2 -way
smaller tournament 177, insn 21556510, accesses_since_last 131073, miss_sat 0, miss_rat 0.000015
smaller tournament 177 outcome, insn 21556869, accesses 391, hits 2,    config 2 -way
smaller tournament 178, insn 21677411, accesses_since_last 131073, miss_sat 0, miss_rat 0.000014
smaller tournament 178 outcome, insn 21678570, accesses 1244, hits 2,    config 2 -way
smaller tournament 179, insn 21799131, accesses_since_last 131073, miss_sat 0, miss_rat 0.000014
smaller tournament 179 outcome, insn 21799277, accesses 210, hits 2,    config 2 -way
smaller tournament 180, insn 21919543, accesses_since_last 131073, miss_sat 0, miss_rat 0.000014
smaller tournament 180 outcome, insn 21919574, accesses 30, hits 2,    config 2 -way
smaller tournament 181, insn 22040282, accesses_since_last 131073, miss_sat 0, miss_rat 0.000014
smaller tournament 181 outcome, insn 22040587, accesses 383, hits 2,    config 2 -way
smaller tournament 182, insn 22161233, accesses_since_last 131073, miss_sat 0, miss_rat 0.000014
smaller tournament 182 outcome, insn 22161560, accesses 424, hits 2,    config 2 -way
smaller tournament 183, insn 22282379, accesses_since_last 131073, miss_sat 0, miss_rat 0.000014
smaller tournament 183 outcome, insn 22283176, accesses 815, hits 2,    config 2 -way
smaller tournament 184, insn 22403940, accesses_since_last 131073, miss_sat 0, miss_rat 0.000014
smaller tournament 184 outcome, insn 22404072, accesses 132, hits 2,    config 2 -way
smaller tournament 185, insn 22524652, accesses_since_last 131073, miss_sat 0, miss_rat 0.000014
smaller tournament 185 outcome, insn 22524692, accesses 39, hits 2,    config 2 -way
smaller tournament 186, insn 22645326, accesses_since_last 131073, miss_sat 0, miss_rat 0.000014
smaller tournament 186 outcome, insn 22646227, accesses 936, hits 2,    config 2 -way
smaller tournament 187, insn 22766852, accesses_since_last 131073, miss_sat 0, miss_rat 0.000014
smaller tournament 187 outcome, insn 22766884, accesses 30, hits 2,    config 2 -way
smaller tournament 188, insn 22887211, accesses_since_last 131073, miss_sat 0, miss_rat 0.000014
smaller tournament 188 outcome, insn 22887626, accesses 441, hits 2,    config 2 -way
smaller tournament 189, insn 23008023, accesses_since_last 131073, miss_sat 0, miss_rat 0.000014
smaller tournament 189 outcome, insn 23009066, accesses 1077, hits 2,    config 2 -way
smaller tournament 190, insn 23129859, accesses_since_last 131073, miss_sat 0, miss_rat 0.000014
smaller tournament 190 outcome, insn 23130192, accesses 430, hits 2,    config 2 -way
smaller tournament 191, insn 23250747, accesses_since_last 131073, miss_sat 0, miss_rat 0.000013
smaller tournament 191 outcome, insn 23251252, accesses 559, hits 2,    config 2 -way
smaller tournament 192, insn 23371355, accesses_since_last 131073, miss_sat 0, miss_rat 0.000013
smaller tournament 192 outcome, insn 23371448, accesses 90, hits 2,    config 2 -way
smaller tournament 193, insn 23491711, accesses_since_last 131073, miss_sat 0, miss_rat 0.000013
smaller tournament 193 outcome, insn 23491848, accesses 175, hits 2,    config 2 -way
smaller tournament 194, insn 23612503, accesses_since_last 131073, miss_sat 0, miss_rat 0.000013
smaller tournament 194 outcome, insn 23612759, accesses 284, hits 2,    config 2 -way
smaller tournament 195, insn 23732820, accesses_since_last 131073, miss_sat 0, miss_rat 0.000013
smaller tournament 195 outcome, insn 23732835, accesses 15, hits 2,    config 2 -way
smaller tournament 196, insn 23853187, accesses_since_last 131073, miss_sat 0, miss_rat 0.000013
smaller tournament 196 outcome, insn 23853940, accesses 771, hits 2,    config 2 -way
smaller tournament 197, insn 23974473, accesses_since_last 131073, miss_sat 0, miss_rat 0.000013
smaller tournament 197 outcome, insn 23974506, accesses 44, hits 2,    config 2 -way
smaller tournament 198, insn 24094472, accesses_since_last 131073, miss_sat 0, miss_rat 0.000013
smaller tournament 198 outcome, insn 24094504, accesses 30, hits 2,    config 2 -way
smaller tournament 199, insn 24214749, accesses_since_last 131073, miss_sat 0, miss_rat 0.000013
smaller tournament 199 outcome, insn 24214783, accesses 34, hits 2,    config 2 -way
smaller tournament 200, insn 24335271, accesses_since_last 131073, miss_sat 0, miss_rat 0.000013
smaller tournament 200 outcome, insn 24335309, accesses 53, hits 2,    config 2 -way
smaller tournament 201, insn 24455975, accesses_since_last 131073, miss_sat 0, miss_rat 0.000013
smaller tournament 201 outcome, insn 24456076, accesses 100, hits 2,    config 2 -way
smaller tournament 202, insn 24576690, accesses_since_last 131073, miss_sat 0, miss_rat 0.000013
smaller tournament 202 outcome, insn 24576751, accesses 61, hits 2,    config 2 -way
smaller tournament 203, insn 24697314, accesses_since_last 131073, miss_sat 0, miss_rat 0.000013
smaller tournament 203 outcome, insn 24697480, accesses 167, hits 2,    config 2 -way
smaller tournament 204, insn 24817975, accesses_since_last 131073, miss_sat 0, miss_rat 0.000013
smaller tournament 204 outcome, insn 24818049, accesses 72, hits 2,    config 2 -way
smaller tournament 205, insn 24938631, accesses_since_last 131073, miss_sat 0, miss_rat 0.000013
smaller tournament 205 outcome, insn 24938964, accesses 342, hits 2,    config 2 -way
smaller tournament 206, insn 25059538, accesses_since_last 131073, miss_sat 0, miss_rat 0.000012
smaller tournament 206 outcome, insn 25060577, accesses 1074, hits 2,    config 2 -way
smaller tournament 207, insn 25181236, accesses_since_last 131073, miss_sat 0, miss_rat 0.000012
smaller tournament 207 outcome, insn 25181757, accesses 552, hits 2,    config 2 -way
smaller tournament 208, insn 25302212, accesses_since_last 131073, miss_sat 0, miss_rat 0.000012
smaller tournament 208 outcome, insn 25302548, accesses 353, hits 2,    config 2 -way
smaller tournament 209, insn 25422876, accesses_since_last 131073, miss_sat 0, miss_rat 0.000012
smaller tournament 209 outcome, insn 25422902, accesses 29, hits 2,    config 2 -way
smaller tournament 210, insn 25543292, accesses_since_last 131073, miss_sat 0, miss_rat 0.000012
smaller tournament 210 outcome, insn 25543564, accesses 301, hits 2,    config 2 -way
smaller tournament 211, insn 25664107, accesses_since_last 131073, miss_sat 0, miss_rat 0.000012
smaller tournament 211 outcome, insn 25664237, accesses 184, hits 2,    config 2 -way
smaller tournament 212, insn 25785026, accesses_since_last 131073, miss_sat 0, miss_rat 0.000012
smaller tournament 212 outcome, insn 25785453, accesses 454, hits 2,    config 2 -way
smaller tournament 213, insn 25905863, accesses_since_last 131073, miss_sat 0, miss_rat 0.000012
smaller tournament 213 outcome, insn 25906470, accesses 626, hits 2,    config 2 -way
smaller tournament 214, insn 26027025, accesses_since_last 131073, miss_sat 0, miss_rat 0.000012
smaller tournament 214 outcome, insn 26027050, accesses 24, hits 2,    config 2 -way
smaller tournament 215, insn 26147696, accesses_since_last 131073, miss_sat 0, miss_rat 0.000012
smaller tournament 215 outcome, insn 26147715, accesses 20, hits 2,    config 2 -way
smaller tournament 216, insn 26268324, accesses_since_last 131073, miss_sat 0, miss_rat 0.000012
smaller tournament 216 outcome, insn 26268398, accesses 93, hits 2,    config 2 -way
smaller tournament 217, insn 26389019, accesses_since_last 131073, miss_sat 0, miss_rat 0.000012
smaller tournament 217 outcome, insn 26389778, accesses 775, hits 2,    config 2 -way
smaller tournament 218, insn 26510382, accesses_since_last 131073, miss_sat 0, miss_rat 0.000012
smaller tournament 218 outcome, insn 26510787, accesses 504, hits 2,    config 2 -way
smaller tournament 219, insn 26631436, accesses_since_last 131073, miss_sat 0, miss_rat 0.000012
smaller tournament 219 outcome, insn 26631573, accesses 159, hits 2,    config 2 -way
smaller tournament 220, insn 26752246, accesses_since_last 131073, miss_sat 0, miss_rat 0.000012
smaller tournament 220 outcome, insn 26753132, accesses 916, hits 2,    config 2 -way
smaller tournament 221, insn 26873650, accesses_since_last 131073, miss_sat 0, miss_rat 0.000012
smaller tournament 221 outcome, insn 26874639, accesses 1095, hits 2,    config 2 -way
smaller tournament 222, insn 26995044, accesses_since_last 131073, miss_sat 0, miss_rat 0.000012
smaller tournament 222 outcome, insn 26995583, accesses 558, hits 2,    config 2 -way
smaller tournament 223, insn 27116201, accesses_since_last 131073, miss_sat 0, miss_rat 0.000012
smaller tournament 223 outcome, insn 27116524, accesses 341, hits 2,    config 2 -way
smaller tournament 224, insn 27236832, accesses_since_last 131073, miss_sat 0, miss_rat 0.000011
smaller tournament 224 outcome, insn 27236883, accesses 50, hits 2,    config 2 -way
smaller tournament 225, insn 27357565, accesses_since_last 131073, miss_sat 0, miss_rat 0.000011
smaller tournament 225 outcome, insn 27357851, accesses 302, hits 2,    config 2 -way
smaller tournament 226, insn 27478392, accesses_since_last 131073, miss_sat 0, miss_rat 0.000011
smaller tournament 226 outcome, insn 27478434, accesses 40, hits 2,    config 2 -way
smaller tournament 227, insn 27599178, accesses_since_last 131073, miss_sat 0, miss_rat 0.000011
smaller tournament 227 outcome, insn 27599772, accesses 611, hits 2,    config 2 -way
smaller tournament 228, insn 27720462, accesses_since_last 131073, miss_sat 0, miss_rat 0.000011
smaller tournament 228 outcome, insn 27720526, accesses 84, hits 2,    config 2 -way
smaller tournament 229, insn 27841263, accesses_since_last 131073, miss_sat 0, miss_rat 0.000011
smaller tournament 229 outcome, insn 27841337, accesses 74, hits 2,    config 2 -way
smaller tournament 230, insn 27962182, accesses_since_last 131073, miss_sat 0, miss_rat 0.000011
smaller tournament 230 outcome, insn 27962963, accesses 816, hits 2,    config 2 -way
smaller tournament 231, insn 28083528, accesses_since_last 131073, miss_sat 0, miss_rat 0.000011
smaller tournament 231 outcome, insn 28083630, accesses 103, hits 2,    config 2 -way
smaller tournament 232, insn 28204306, accesses_since_last 131073, miss_sat 0, miss_rat 0.000011
smaller tournament 232 outcome, insn 28205385, accesses 1115, hits 2,    config 2 -way
smaller tournament 233, insn 28325967, accesses_since_last 131073, miss_sat 0, miss_rat 0.000011
smaller tournament 233 outcome, insn 28326037, accesses 69, hits 2,    config 2 -way
smaller tournament 234, insn 28446652, accesses_since_last 131073, miss_sat 0, miss_rat 0.000011
smaller tournament 234 outcome, insn 28446670, accesses 18, hits 2,    config 2 -way
smaller tournament 235, insn 28567226, accesses_since_last 131073, miss_sat 0, miss_rat 0.000011
smaller tournament 235 outcome, insn 28567704, accesses 525, hits 2,    config 2 -way
smaller tournament 236, insn 28688181, accesses_since_last 131073, miss_sat 0, miss_rat 0.000011
smaller tournament 236 outcome, insn 28689729, accesses 1600, hits 2,    config 2 -way
smaller tournament 237, insn 28810171, accesses_since_last 131073, miss_sat 0, miss_rat 0.000011
smaller tournament 237 outcome, insn 28810239, accesses 92, hits 2,    config 2 -way
smaller tournament 238, insn 28931007, accesses_since_last 131073, miss_sat 0, miss_rat 0.000011
smaller tournament 238 outcome, insn 28931404, accesses 413, hits 2,    config 2 -way
smaller tournament 239, insn 29051777, accesses_since_last 131073, miss_sat 0, miss_rat 0.000011
smaller tournament 239 outcome, insn 29052299, accesses 540, hits 2,    config 2 -way
smaller tournament 240, insn 29172888, accesses_since_last 131073, miss_sat 0, miss_rat 0.000011
smaller tournament 240 outcome, insn 29174244, accesses 1436, hits 2,    config 2 -way
smaller tournament 241, insn 29294903, accesses_since_last 131073, miss_sat 0, miss_rat 0.000011
smaller tournament 241 outcome, insn 29296185, accesses 1335, hits 2,    config 2 -way
smaller tournament 242, insn 29416841, accesses_since_last 131073, miss_sat 0, miss_rat 0.000011
smaller tournament 242 outcome, insn 29418121, accesses 1317, hits 2,    config 2 -way
smaller tournament 243, insn 29538678, accesses_since_last 131073, miss_sat 0, miss_rat 0.000011
smaller tournament 243 outcome, insn 29538898, accesses 231, hits 2,    config 2 -way
smaller tournament 244, insn 29659416, accesses_since_last 131073, miss_sat 0, miss_rat 0.000011
smaller tournament 244 outcome, insn 29660872, accesses 1511, hits 2,    config 2 -way
smaller tournament 245, insn 29781635, accesses_since_last 131073, miss_sat 0, miss_rat 0.000011
smaller tournament 245 outcome, insn 29781781, accesses 147, hits 2,    config 2 -way
smaller tournament 246, insn 29902355, accesses_since_last 131073, miss_sat 0, miss_rat 0.000010
smaller tournament 246 outcome, insn 29902388, accesses 40, hits 2,    config 2 -way
smaller tournament 247, insn 30023288, accesses_since_last 131073, miss_sat 0, miss_rat 0.000010
smaller tournament 247 outcome, insn 30023882, accesses 622, hits 2,    config 2 -way
smaller tournament 248, insn 30144574, accesses_since_last 131073, miss_sat 0, miss_rat 0.000010
smaller tournament 248 outcome, insn 30144779, accesses 204, hits 2,    config 2 -way
smaller tournament 249, insn 30265316, accesses_since_last 131073, miss_sat 0, miss_rat 0.000010
smaller tournament 249 outcome, insn 30265623, accesses 399, hits 2,    config 2 -way
smaller tournament 250, insn 30386086, accesses_since_last 131073, miss_sat 0, miss_rat 0.000010
smaller tournament 250 outcome, insn 30386521, accesses 452, hits 2,    config 2 -way
smaller tournament 251, insn 30507046, accesses_since_last 131073, miss_sat 0, miss_rat 0.000010
smaller tournament 251 outcome, insn 30507356, accesses 372, hits 2,    config 2 -way
smaller tournament 252, insn 30627667, accesses_since_last 131073, miss_sat 0, miss_rat 0.000010
smaller tournament 252 outcome, insn 30627777, accesses 109, hits 2,    config 2 -way
smaller tournament 253, insn 30748202, accesses_since_last 131073, miss_sat 0, miss_rat 0.000010
smaller tournament 253 outcome, insn 30748459, accesses 277, hits 2,    config 2 -way
smaller tournament 254, insn 30869117, accesses_since_last 131073, miss_sat 0, miss_rat 0.000010
smaller tournament 254 outcome, insn 30869439, accesses 349, hits 2,    config 2 -way
smaller tournament 255, insn 30989946, accesses_since_last 131073, miss_sat 0, miss_rat 0.000010
smaller tournament 255 outcome, insn 30990014, accesses 68, hits 2,    config 2 -way
smaller tournament 256, insn 31110732, accesses_since_last 131073, miss_sat 0, miss_rat 0.000010
smaller tournament 256 outcome, insn 31111362, accesses 658, hits 2,    config 2 -way
smaller tournament 257, insn 31231894, accesses_since_last 131073, miss_sat 0, miss_rat 0.000010
smaller tournament 257 outcome, insn 31232055, accesses 162, hits 2,    config 2 -way
smaller tournament 258, insn 31352580, accesses_since_last 131073, miss_sat 0, miss_rat 0.000010
smaller tournament 258 outcome, insn 31353197, accesses 644, hits 2,    config 2 -way
smaller tournament 259, insn 31473683, accesses_since_last 131073, miss_sat 0, miss_rat 0.000010
smaller tournament 259 outcome, insn 31473755, accesses 72, hits 2,    config 2 -way
smaller tournament 260, insn 31594373, accesses_since_last 131073, miss_sat 0, miss_rat 0.000010
smaller tournament 260 outcome, insn 31594880, accesses 523, hits 2,    config 2 -way
smaller tournament 261, insn 31715361, accesses_since_last 131073, miss_sat 0, miss_rat 0.000010
smaller tournament 261 outcome, insn 31715382, accesses 22, hits 2,    config 2 -way
smaller tournament 262, insn 31835911, accesses_since_last 131073, miss_sat 0, miss_rat 0.000010
smaller tournament 262 outcome, insn 31836077, accesses 165, hits 2,    config 2 -way
smaller tournament 263, insn 31956618, accesses_since_last 131073, miss_sat 0, miss_rat 0.000010
smaller tournament 263 outcome, insn 31958205, accesses 1660, hits 2,    config 2 -way
smaller tournament 264, insn 32078854, accesses_since_last 131073, miss_sat 0, miss_rat 0.000010
smaller tournament 264 outcome, insn 32079244, accesses 487, hits 2,    config 2 -way
smaller tournament 265, insn 32199571, accesses_since_last 131073, miss_sat 0, miss_rat 0.000010
smaller tournament 265 outcome, insn 32199659, accesses 98, hits 2,    config 2 -way
smaller tournament 266, insn 32319748, accesses_since_last 131073, miss_sat 0, miss_rat 0.000010
smaller tournament 266 outcome, insn 32320129, accesses 420, hits 2,    config 2 -way
smaller tournament 267, insn 32440682, accesses_since_last 131073, miss_sat 0, miss_rat 0.000010
smaller tournament 267 outcome, insn 32441812, accesses 1167, hits 2,    config 2 -way
smaller tournament 268, insn 32562516, accesses_since_last 131073, miss_sat 0, miss_rat 0.000010
smaller tournament 268 outcome, insn 32562709, accesses 247, hits 2,    config 2 -way
smaller tournament 269, insn 32683451, accesses_since_last 131073, miss_sat 0, miss_rat 0.000010
smaller tournament 269 outcome, insn 32684903, accesses 1524, hits 2,    config 2 -way
smaller tournament 270, insn 32805643, accesses_since_last 131073, miss_sat 0, miss_rat 0.000010
smaller tournament 270 outcome, insn 32806414, accesses 797, hits 2,    config 2 -way
smaller tournament 271, insn 32927054, accesses_since_last 131073, miss_sat 0, miss_rat 0.000010
smaller tournament 271 outcome, insn 32927703, accesses 665, hits 2,    config 2 -way
smaller tournament 272, insn 33048266, accesses_since_last 131073, miss_sat 0, miss_rat 0.000009
smaller tournament 272 outcome, insn 33048469, accesses 258, hits 2,    config 2 -way
smaller tournament 273, insn 33169066, accesses_since_last 131073, miss_sat 0, miss_rat 0.000009
smaller tournament 273 outcome, insn 33169126, accesses 69, hits 2,    config 2 -way
smaller tournament 274, insn 33289757, accesses_since_last 131073, miss_sat 0, miss_rat 0.000009
smaller tournament 274 outcome, insn 33289962, accesses 259, hits 2,    config 2 -way
smaller tournament 275, insn 33410531, accesses_since_last 131073, miss_sat 0, miss_rat 0.000009
smaller tournament 275 outcome, insn 33411607, accesses 1146, hits 2,    config 2 -way
smaller tournament 276, insn 33532135, accesses_since_last 131073, miss_sat 0, miss_rat 0.000009
smaller tournament 276 outcome, insn 33532141, accesses 4, hits 2,    config 2 -way
smaller tournament 277, insn 33652891, accesses_since_last 131073, miss_sat 0, miss_rat 0.000009
smaller tournament 277 outcome, insn 33653052, accesses 162, hits 2,    config 2 -way
smaller tournament 278, insn 33773649, accesses_since_last 131073, miss_sat 0, miss_rat 0.000009
smaller tournament 278 outcome, insn 33775225, accesses 1641, hits 2,    config 2 -way
smaller tournament 279, insn 33895699, accesses_since_last 131073, miss_sat 0, miss_rat 0.000009
smaller tournament 279 outcome, insn 33896410, accesses 728, hits 2,    config 2 -way
smaller tournament 280, insn 34016890, accesses_since_last 131073, miss_sat 0, miss_rat 0.000009
smaller tournament 280 outcome, insn 34017846, accesses 1034, hits 2,    config 2 -way
smaller tournament 281, insn 34138066, accesses_since_last 131073, miss_sat 0, miss_rat 0.000009
smaller tournament 281 outcome, insn 34138121, accesses 57, hits 2,    config 2 -way
smaller tournament 282, insn 34258677, accesses_since_last 131073, miss_sat 0, miss_rat 0.000009
smaller tournament 282 outcome, insn 34258835, accesses 214, hits 2,    config 2 -way
smaller tournament 283, insn 34379172, accesses_since_last 131073, miss_sat 0, miss_rat 0.000009
smaller tournament 283 outcome, insn 34379210, accesses 37, hits 2,    config 2 -way
smaller tournament 284, insn 34499561, accesses_since_last 131073, miss_sat 0, miss_rat 0.000009
smaller tournament 284 outcome, insn 34500912, accesses 1396, hits 2,    config 2 -way
smaller tournament 285, insn 34621703, accesses_since_last 131073, miss_sat 0, miss_rat 0.000009
smaller tournament 285 outcome, insn 34622465, accesses 797, hits 2,    config 2 -way
smaller tournament 286, insn 34742949, accesses_since_last 131073, miss_sat 0, miss_rat 0.000009
smaller tournament 286 outcome, insn 34744493, accesses 1596, hits 2,    config 2 -way
smaller tournament 287, insn 34865000, accesses_since_last 131073, miss_sat 0, miss_rat 0.000009
smaller tournament 287 outcome, insn 34865602, accesses 639, hits 2,    config 2 -way
smaller tournament 288, insn 34986119, accesses_since_last 131073, miss_sat 0, miss_rat 0.000009
smaller tournament 288 outcome, insn 34986194, accesses 74, hits 2,    config 2 -way
smaller tournament 289, insn 35106862, accesses_since_last 131073, miss_sat 0, miss_rat 0.000009
smaller tournament 289 outcome, insn 35106884, accesses 24, hits 2,    config 2 -way
smaller tournament 290, insn 35227551, accesses_since_last 131073, miss_sat 0, miss_rat 0.000009
smaller tournament 290 outcome, insn 35227729, accesses 222, hits 2,    config 2 -way
smaller tournament 291, insn 35348326, accesses_since_last 131073, miss_sat 0, miss_rat 0.000009
smaller tournament 291 outcome, insn 35348433, accesses 106, hits 2,    config 2 -way
smaller tournament 292, insn 35468992, accesses_since_last 131073, miss_sat 0, miss_rat 0.000009
smaller tournament 292 outcome, insn 35470609, accesses 1716, hits 2,    config 2 -way
smaller tournament 293, insn 35591058, accesses_since_last 131073, miss_sat 0, miss_rat 0.000009
smaller tournament 293 outcome, insn 35591072, accesses 17, hits 2,    config 2 -way
smaller tournament 294, insn 35711293, accesses_since_last 131073, miss_sat 0, miss_rat 0.000009
smaller tournament 294 outcome, insn 35711692, accesses 416, hits 2,    config 2 -way
smaller tournament 295, insn 35832033, accesses_since_last 131073, miss_sat 0, miss_rat 0.000009
smaller tournament 295 outcome, insn 35832130, accesses 99, hits 2,    config 2 -way
smaller tournament 296, insn 35952809, accesses_since_last 131073, miss_sat 0, miss_rat 0.000009
smaller tournament 296 outcome, insn 35952870, accesses 61, hits 2,    config 2 -way
smaller tournament 297, insn 36073469, accesses_since_last 131073, miss_sat 0, miss_rat 0.000009
smaller tournament 297 outcome, insn 36073475, accesses 6, hits 2,    config 2 -way
smaller tournament 298, insn 36193933, accesses_since_last 131073, miss_sat 0, miss_rat 0.000009
smaller tournament 298 outcome, insn 36194057, accesses 142, hits 2,    config 2 -way
smaller tournament 299, insn 36314096, accesses_since_last 131073, miss_sat 0, miss_rat 0.000009
smaller tournament 299 outcome, insn 36314115, accesses 17, hits 2,    config 2 -way
smaller tournament 300, insn 36434688, accesses_since_last 131073, miss_sat 0, miss_rat 0.000009
smaller tournament 300 outcome, insn 36434713, accesses 27, hits 2,    config 2 -way
smaller tournament 301, insn 36554987, accesses_since_last 131073, miss_sat 0, miss_rat 0.000009
smaller tournament 301 outcome, insn 36555133, accesses 157, hits 2,    config 2 -way
smaller tournament 302, insn 36675093, accesses_since_last 131073, miss_sat 0, miss_rat 0.000009
smaller tournament 302 outcome, insn 36676710, accesses 1697, hits 2,    config 2 -way
smaller tournament 303, insn 36797426, accesses_since_last 131073, miss_sat 0, miss_rat 0.000009
smaller tournament 303 outcome, insn 36797481, accesses 55, hits 2,    config 2 -way
smaller tournament 304, insn 36918210, accesses_since_last 131073, miss_sat 0, miss_rat 0.000008
smaller tournament 304 outcome, insn 36918480, accesses 289, hits 2,    config 2 -way
smaller tournament 305, insn 37039066, accesses_since_last 131073, miss_sat 0, miss_rat 0.000008
smaller tournament 305 outcome, insn 37039531, accesses 503, hits 2,    config 2 -way
smaller tournament 306, insn 37159989, accesses_since_last 131073, miss_sat 0, miss_rat 0.000008
smaller tournament 306 outcome, insn 37160030, accesses 56, hits 2,    config 2 -way
smaller tournament 307, insn 37280458, accesses_since_last 131073, miss_sat 0, miss_rat 0.000008
smaller tournament 307 outcome, insn 37280684, accesses 292, hits 2,    config 2 -way
smaller tournament 308, insn 37401459, accesses_since_last 131073, miss_sat 0, miss_rat 0.000008
smaller tournament 308 outcome, insn 37401468, accesses 9, hits 2,    config 2 -way
smaller tournament 309, insn 37521722, accesses_since_last 131073, miss_sat 0, miss_rat 0.000008
smaller tournament 309 outcome, insn 37522647, accesses 959, hits 2,    config 2 -way
smaller tournament 310, insn 37643265, accesses_since_last 131073, miss_sat 0, miss_rat 0.000008
smaller tournament 310 outcome, insn 37644593, accesses 1365, hits 2,    config 2 -way
smaller tournament 311, insn 37765248, accesses_since_last 131073, miss_sat 0, miss_rat 0.000008
smaller tournament 311 outcome, insn 37765963, accesses 750, hits 2,    config 2 -way
smaller tournament 312, insn 37886640, accesses_since_last 131073, miss_sat 0, miss_rat 0.000008
smaller tournament 312 outcome, insn 37887862, accesses 1259, hits 2,    config 2 -way
smaller tournament 313, insn 38008547, accesses_since_last 131073, miss_sat 0, miss_rat 0.000008
smaller tournament 313 outcome, insn 38008848, accesses 390, hits 2,    config 2 -way
smaller tournament 314, insn 38129333, accesses_since_last 131073, miss_sat 0, miss_rat 0.000008
smaller tournament 314 outcome, insn 38130501, accesses 1213, hits 2,    config 2 -way
smaller tournament 315, insn 38250756, accesses_since_last 131073, miss_sat 0, miss_rat 0.000008
smaller tournament 315 outcome, insn 38251457, accesses 798, hits 2,    config 2 -way
smaller tournament 316, insn 38371810, accesses_since_last 131073, miss_sat 0, miss_rat 0.000008
smaller tournament 316 outcome, insn 38371867, accesses 56, hits 2,    config 2 -way
smaller tournament 317, insn 38492426, accesses_since_last 131073, miss_sat 0, miss_rat 0.000008
smaller tournament 317 outcome, insn 38493835, accesses 1472, hits 2,    config 2 -way
smaller tournament 318, insn 38614466, accesses_since_last 131073, miss_sat 0, miss_rat 0.000008
smaller tournament 318 outcome, insn 38615469, accesses 1047, hits 2,    config 2 -way
smaller tournament 319, insn 38736128, accesses_since_last 131073, miss_sat 0, miss_rat 0.000008
smaller tournament 319 outcome, insn 38737131, accesses 1048, hits 2,    config 2 -way
smaller tournament 320, insn 38857626, accesses_since_last 131073, miss_sat 0, miss_rat 0.000008
smaller tournament 320 outcome, insn 38857656, accesses 28, hits 2,    config 2 -way
smaller tournament 321, insn 38978180, accesses_since_last 131073, miss_sat 0, miss_rat 0.000008
smaller tournament 321 outcome, insn 38979011, accesses 860, hits 2,    config 2 -way
smaller tournament 322, insn 39099443, accesses_since_last 131073, miss_sat 0, miss_rat 0.000008
smaller tournament 322 outcome, insn 39099629, accesses 265, hits 2,    config 2 -way
smaller tournament 323, insn 39220182, accesses_since_last 131073, miss_sat 0, miss_rat 0.000008
smaller tournament 323 outcome, insn 39220294, accesses 122, hits 2,    config 2 -way
smaller tournament 324, insn 39341150, accesses_since_last 131073, miss_sat 0, miss_rat 0.000008
smaller tournament 324 outcome, insn 39341899, accesses 795, hits 2,    config 2 -way
smaller tournament 325, insn 39462637, accesses_since_last 131073, miss_sat 0, miss_rat 0.000008
smaller tournament 325 outcome, insn 39463924, accesses 1374, hits 2,    config 2 -way
smaller tournament 326, insn 39584504, accesses_since_last 131073, miss_sat 0, miss_rat 0.000008
smaller tournament 326 outcome, insn 39584520, accesses 17, hits 2,    config 2 -way
smaller tournament 327, insn 39705391, accesses_since_last 131073, miss_sat 0, miss_rat 0.000008
smaller tournament 327 outcome, insn 39706364, accesses 1056, hits 2,    config 2 -way
smaller tournament 328, insn 39827053, accesses_since_last 131073, miss_sat 0, miss_rat 0.000008
smaller tournament 328 outcome, insn 39827339, accesses 313, hits 2,    config 2 -way
smaller tournament 329, insn 39947946, accesses_since_last 131073, miss_sat 0, miss_rat 0.000008
smaller tournament 329 outcome, insn 39948306, accesses 394, hits 2,    config 2 -way
smaller tournament 330, insn 40068788, accesses_since_last 131073, miss_sat 0, miss_rat 0.000008
smaller tournament 330 outcome, insn 40068946, accesses 155, hits 2,    config 2 -way
smaller tournament 331, insn 40189457, accesses_since_last 131073, miss_sat 0, miss_rat 0.000008
smaller tournament 331 outcome, insn 40189734, accesses 297, hits 2,    config 2 -way
smaller tournament 332, insn 40310367, accesses_since_last 131073, miss_sat 0, miss_rat 0.000008
smaller tournament 332 outcome, insn 40312060, accesses 1776, hits 2,    config 2 -way
smaller tournament 333, insn 40432846, accesses_since_last 131073, miss_sat 0, miss_rat 0.000008
smaller tournament 333 outcome, insn 40433738, accesses 911, hits 2,    config 2 -way
smaller tournament 334, insn 40554446, accesses_since_last 131073, miss_sat 0, miss_rat 0.000008
smaller tournament 334 outcome, insn 40556103, accesses 1752, hits 2,    config 2 -way
smaller tournament 335, insn 40676850, accesses_since_last 131073, miss_sat 0, miss_rat 0.000008
smaller tournament 335 outcome, insn 40677790, accesses 986, hits 2,    config 2 -way
smaller tournament 336, insn 40798483, accesses_since_last 131073, miss_sat 0, miss_rat 0.000008
smaller tournament 336 outcome, insn 40799969, accesses 1550, hits 2,    config 2 -way
smaller tournament 337, insn 40920573, accesses_since_last 131073, miss_sat 0, miss_rat 0.000008
smaller tournament 337 outcome, insn 40921959, accesses 1438, hits 2,    config 2 -way
smaller tournament 338, insn 41042475, accesses_since_last 131073, miss_sat 0, miss_rat 0.000008
smaller tournament 338 outcome, insn 41043250, accesses 791, hits 2,    config 2 -way
smaller tournament 339, insn 41163870, accesses_since_last 131073, miss_sat 0, miss_rat 0.000008
smaller tournament 339 outcome, insn 41164131, accesses 278, hits 2,    config 2 -way
smaller tournament 340, insn 41284767, accesses_since_last 131073, miss_sat 0, miss_rat 0.000008
smaller tournament 340 outcome, insn 41285032, accesses 281, hits 2,    config 2 -way
smaller tournament 341, insn 41405676, accesses_since_last 131073, miss_sat 0, miss_rat 0.000008
smaller tournament 341 outcome, insn 41406257, accesses 612, hits 2,    config 2 -way
smaller tournament 342, insn 41526672, accesses_since_last 131073, miss_sat 0, miss_rat 0.000008
smaller tournament 342 outcome, insn 41526680, accesses 9, hits 2,    config 2 -way
smaller tournament 343, insn 41647384, accesses_since_last 131073, miss_sat 0, miss_rat 0.000008
smaller tournament 343 outcome, insn 41647396, accesses 11, hits 2,    config 2 -way
smaller tournament 344, insn 41767962, accesses_since_last 131073, miss_sat 0, miss_rat 0.000007
smaller tournament 344 outcome, insn 41768093, accesses 185, hits 2,    config 2 -way
smaller tournament 345, insn 41888388, accesses_since_last 131073, miss_sat 0, miss_rat 0.000007
smaller tournament 345 outcome, insn 41888606, accesses 231, hits 2,    config 2 -way
smaller tournament 346, insn 42009468, accesses_since_last 131073, miss_sat 0, miss_rat 0.000007
smaller tournament 346 outcome, insn 42009822, accesses 380, hits 2,    config 2 -way
smaller tournament 347, insn 42130404, accesses_since_last 131073, miss_sat 0, miss_rat 0.000007
smaller tournament 347 outcome, insn 42130533, accesses 154, hits 2,    config 2 -way
smaller tournament 348, insn 42251111, accesses_since_last 131073, miss_sat 0, miss_rat 0.000007
smaller tournament 348 outcome, insn 42251299, accesses 296, hits 2,    config 2 -way
smaller tournament 349, insn 42371718, accesses_since_last 131073, miss_sat 0, miss_rat 0.000007
smaller tournament 349 outcome, insn 42371737, accesses 19, hits 2,    config 2 -way
smaller tournament 350, insn 42492509, accesses_since_last 131073, miss_sat 0, miss_rat 0.000007
smaller tournament 350 outcome, insn 42493262, accesses 803, hits 2,    config 2 -way
smaller tournament 351, insn 42613818, accesses_since_last 131073, miss_sat 0, miss_rat 0.000007
smaller tournament 351 outcome, insn 42614549, accesses 765, hits 2,    config 2 -way
smaller tournament 352, insn 42735135, accesses_since_last 131073, miss_sat 0, miss_rat 0.000007
smaller tournament 352 outcome, insn 42736288, accesses 1223, hits 2,    config 2 -way
smaller tournament 353, insn 42856999, accesses_since_last 131073, miss_sat 0, miss_rat 0.000007
smaller tournament 353 outcome, insn 42857069, accesses 83, hits 2,    config 2 -way
smaller tournament 354, insn 42977820, accesses_since_last 131073, miss_sat 0, miss_rat 0.000007
smaller tournament 354 outcome, insn 42978057, accesses 255, hits 2,    config 2 -way
smaller tournament 355, insn 43098832, accesses_since_last 131073, miss_sat 0, miss_rat 0.000007
smaller tournament 355 outcome, insn 43099288, accesses 487, hits 2,    config 2 -way
smaller tournament 356, insn 43219870, accesses_since_last 131073, miss_sat 0, miss_rat 0.000007
smaller tournament 356 outcome, insn 43220906, accesses 1087, hits 2,    config 2 -way
smaller tournament 357, insn 43341499, accesses_since_last 131073, miss_sat 0, miss_rat 0.000007
smaller tournament 357 outcome, insn 43342232, accesses 750, hits 2,    config 2 -way
smaller tournament 358, insn 43462918, accesses_since_last 131073, miss_sat 0, miss_rat 0.000007
smaller tournament 358 outcome, insn 43462978, accesses 71, hits 2,    config 2 -way
smaller tournament 359, insn 43583590, accesses_since_last 131073, miss_sat 0, miss_rat 0.000007
smaller tournament 359 outcome, insn 43584194, accesses 673, hits 2,    config 2 -way
smaller tournament 360, insn 43704648, accesses_since_last 131073, miss_sat 0, miss_rat 0.000007
smaller tournament 360 outcome, insn 43705198, accesses 569, hits 2,    config 2 -way
smaller tournament 361, insn 43825997, accesses_since_last 131073, miss_sat 0, miss_rat 0.000007
smaller tournament 361 outcome, insn 43826010, accesses 14, hits 2,    config 2 -way
smaller tournament 362, insn 43946719, accesses_since_last 131073, miss_sat 0, miss_rat 0.000007
smaller tournament 362 outcome, insn 43946952, accesses 234, hits 2,    config 2 -way
smaller tournament 363, insn 44067683, accesses_since_last 131073, miss_sat 0, miss_rat 0.000007
smaller tournament 363 outcome, insn 44067731, accesses 54, hits 2,    config 2 -way
smaller tournament 364, insn 44188502, accesses_since_last 131073, miss_sat 0, miss_rat 0.000007
smaller tournament 364 outcome, insn 44188544, accesses 41, hits 2,    config 2 -way
smaller tournament 365, insn 44309071, accesses_since_last 131073, miss_sat 0, miss_rat 0.000007
smaller tournament 365 outcome, insn 44310347, accesses 1311, hits 2,    config 2 -way
smaller tournament 366, insn 44430875, accesses_since_last 131073, miss_sat 0, miss_rat 0.000007
smaller tournament 366 outcome, insn 44431292, accesses 433, hits 2,    config 2 -way
smaller tournament 367, insn 44551738, accesses_since_last 131073, miss_sat 0, miss_rat 0.000007
smaller tournament 367 outcome, insn 44551984, accesses 302, hits 2,    config 2 -way
smaller tournament 368, insn 44672698, accesses_since_last 131073, miss_sat 0, miss_rat 0.000007
smaller tournament 368 outcome, insn 44673320, accesses 648, hits 2,    config 2 -way
smaller tournament 369, insn 44793808, accesses_since_last 131073, miss_sat 0, miss_rat 0.000007
smaller tournament 369 outcome, insn 44794609, accesses 817, hits 2,    config 2 -way
smaller tournament 370, insn 44915096, accesses_since_last 131073, miss_sat 0, miss_rat 0.000007
smaller tournament 370 outcome, insn 44916232, accesses 1173, hits 2,    config 2 -way
smaller tournament 371, insn 45036806, accesses_since_last 131073, miss_sat 0, miss_rat 0.000007
smaller tournament 371 outcome, insn 45036884, accesses 79, hits 2,    config 2 -way
smaller tournament 372, insn 45157600, accesses_since_last 131073, miss_sat 0, miss_rat 0.000007
smaller tournament 372 outcome, insn 45157918, accesses 416, hits 2,    config 2 -way
smaller tournament 373, insn 45278449, accesses_since_last 131073, miss_sat 0, miss_rat 0.000007
smaller tournament 373 outcome, insn 45279509, accesses 1129, hits 2,    config 2 -way
smaller tournament 374, insn 45400032, accesses_since_last 131073, miss_sat 0, miss_rat 0.000007
smaller tournament 374 outcome, insn 45400614, accesses 609, hits 2,    config 2 -way
smaller tournament 375, insn 45521276, accesses_since_last 131073, miss_sat 0, miss_rat 0.000007
smaller tournament 375 outcome, insn 45521898, accesses 639, hits 2,    config 2 -way
smaller tournament 376, insn 45642598, accesses_since_last 131073, miss_sat 0, miss_rat 0.000007
smaller tournament 376 outcome, insn 45643561, accesses 1000, hits 2,    config 2 -way
smaller tournament 377, insn 45764255, accesses_since_last 131073, miss_sat 0, miss_rat 0.000007
smaller tournament 377 outcome, insn 45764392, accesses 157, hits 2,    config 2 -way
smaller tournament 378, insn 45885228, accesses_since_last 131073, miss_sat 0, miss_rat 0.000007
smaller tournament 378 outcome, insn 45886684, accesses 1509, hits 2,    config 2 -way
smaller tournament 379, insn 46007463, accesses_since_last 131073, miss_sat 0, miss_rat 0.000007
smaller tournament 379 outcome, insn 46007868, accesses 504, hits 2,    config 2 -way
smaller tournament 380, insn 46128562, accesses_since_last 131073, miss_sat 0, miss_rat 0.000007
smaller tournament 380 outcome, insn 46129731, accesses 1205, hits 2,    config 2 -way
smaller tournament 381, insn 46250127, accesses_since_last 131073, miss_sat 0, miss_rat 0.000007
smaller tournament 381 outcome, insn 46250733, accesses 692, hits 2,    config 2 -way
smaller tournament 382, insn 46371234, accesses_since_last 131073, miss_sat 0, miss_rat 0.000007
smaller tournament 382 outcome, insn 46371255, accesses 29, hits 2,    config 2 -way
smaller tournament 383, insn 46491761, accesses_since_last 131073, miss_sat 0, miss_rat 0.000007
smaller tournament 383 outcome, insn 46493240, accesses 1543, hits 2,    config 2 -way
smaller tournament 384, insn 46613743, accesses_since_last 131073, miss_sat 0, miss_rat 0.000007
smaller tournament 384 outcome, insn 46613807, accesses 64, hits 2,    config 2 -way
smaller tournament 385, insn 46734490, accesses_since_last 131073, miss_sat 0, miss_rat 0.000007
smaller tournament 385 outcome, insn 46734678, accesses 285, hits 2,    config 2 -way
smaller tournament 386, insn 46855289, accesses_since_last 131073, miss_sat 0, miss_rat 0.000007
smaller tournament 386 outcome, insn 46855337, accesses 57, hits 2,    config 2 -way
smaller tournament 387, insn 46975789, accesses_since_last 131073, miss_sat 0, miss_rat 0.000007
smaller tournament 387 outcome, insn 46976068, accesses 308, hits 2,    config 2 -way
smaller tournament 388, insn 47096537, accesses_since_last 131073, miss_sat 0, miss_rat 0.000007
smaller tournament 388 outcome, insn 47098326, accesses 1900, hits 2,    config 2 -way
smaller tournament 389, insn 47218659, accesses_since_last 131073, miss_sat 0, miss_rat 0.000007
smaller tournament 389 outcome, insn 47219967, accesses 1395, hits 2,    config 2 -way
smaller tournament 390, insn 47340086, accesses_since_last 131073, miss_sat 0, miss_rat 0.000007
smaller tournament 390 outcome, insn 47340092, accesses 4, hits 2,    config 2 -way
smaller tournament 391, insn 47460658, accesses_since_last 131073, miss_sat 0, miss_rat 0.000007
smaller tournament 391 outcome, insn 47461913, accesses 1291, hits 2,    config 2 -way
smaller tournament 392, insn 47582631, accesses_since_last 131073, miss_sat 0, miss_rat 0.000007
smaller tournament 392 outcome, insn 47584009, accesses 1451, hits 2,    config 2 -way
smaller tournament 393, insn 47704790, accesses_since_last 131073, miss_sat 0, miss_rat 0.000007
smaller tournament 393 outcome, insn 47705451, accesses 679, hits 2,    config 2 -way
smaller tournament 394, insn 47825961, accesses_since_last 131073, miss_sat 0, miss_rat 0.000007
smaller tournament 394 outcome, insn 47826368, accesses 433, hits 2,    config 2 -way
smaller tournament 395, insn 47946786, accesses_since_last 131073, miss_sat 0, miss_rat 0.000007
smaller tournament 395 outcome, insn 47946801, accesses 13, hits 2,    config 2 -way
smaller tournament 396, insn 48066890, accesses_since_last 131073, miss_sat 0, miss_rat 0.000007
smaller tournament 396 outcome, insn 48067291, accesses 427, hits 2,    config 2 -way
smaller tournament 397, insn 48187758, accesses_since_last 131073, miss_sat 0, miss_rat 0.000006
smaller tournament 397 outcome, insn 48187820, accesses 63, hits 2,    config 2 -way
smaller tournament 398, insn 48307865, accesses_since_last 131073, miss_sat 0, miss_rat 0.000006
smaller tournament 398 outcome, insn 48309161, accesses 1348, hits 2,    config 2 -way
smaller tournament 399, insn 48429851, accesses_since_last 131073, miss_sat 0, miss_rat 0.000006
smaller tournament 399 outcome, insn 48430544, accesses 722, hits 2,    config 2 -way
smaller tournament 400, insn 48550934, accesses_since_last 131073, miss_sat 0, miss_rat 0.000006
smaller tournament 400 outcome, insn 48551734, accesses 827, hits 2,    config 2 -way
smaller tournament 401, insn 48671745, accesses_since_last 131073, miss_sat 0, miss_rat 0.000006
smaller tournament 401 outcome, insn 48672240, accesses 511, hits 2,    config 2 -way
smaller tournament 402, insn 48792666, accesses_since_last 131073, miss_sat 0, miss_rat 0.000006
smaller tournament 402 outcome, insn 48792777, accesses 136, hits 2,    config 2 -way
smaller tournament 403, insn 48913381, accesses_since_last 131073, miss_sat 0, miss_rat 0.000006
smaller tournament 403 outcome, insn 48913962, accesses 625, hits 2,    config 2 -way
smaller tournament 404, insn 49034018, accesses_since_last 131073, miss_sat 0, miss_rat 0.000006
smaller tournament 404 outcome, insn 49034097, accesses 97, hits 2,    config 2 -way
smaller tournament 405, insn 49154413, accesses_since_last 131073, miss_sat 0, miss_rat 0.000006
smaller tournament 405 outcome, insn 49154455, accesses 42, hits 2,    config 2 -way
smaller tournament 406, insn 49274991, accesses_since_last 131073, miss_sat 0, miss_rat 0.000006
smaller tournament 406 outcome, insn 49274995, accesses 5, hits 2,    config 2 -way
smaller tournament 407, insn 49394989, accesses_since_last 131073, miss_sat 0, miss_rat 0.000006
smaller tournament 407 outcome, insn 49394993, accesses 7, hits 2,    config 2 -way
smaller tournament 408, insn 49514908, accesses_since_last 131073, miss_sat 0, miss_rat 0.000006
smaller tournament 408 outcome, insn 49515191, accesses 357, hits 2,    config 2 -way
smaller tournament 409, insn 49635846, accesses_since_last 131073, miss_sat 0, miss_rat 0.000006
smaller tournament 409 outcome, insn 49637399, accesses 1606, hits 2,    config 2 -way
smaller tournament 410, insn 49758070, accesses_since_last 131073, miss_sat 0, miss_rat 0.000006
smaller tournament 410 outcome, insn 49758418, accesses 447, hits 2,    config 2 -way
smaller tournament 411, insn 49879141, accesses_since_last 131073, miss_sat 0, miss_rat 0.000006
smaller tournament 411 outcome, insn 49880292, accesses 1230, hits 2,    config 2 -way

sim: ** simulation statistics **
sim_num_insn               50000000 # total number of instructions committed
sim_num_refs               17683714 # total number of loads and stores committed
sim_num_loads              13430503 # total number of loads committed
sim_num_stores         4253211.0000 # total number of stores committed
sim_num_branches            8255502 # total number of branches committed
sim_elapsed_time                100 # total simulation time in seconds
sim_inst_rate           500000.0000 # simulation speed (in insts/sec)
sim_total_insn             53243601 # total number of instructions executed
sim_total_refs             18672903 # total number of loads and stores executed
sim_total_loads            14257693 # total number of loads executed
sim_total_stores       4415210.0000 # total number of stores executed
sim_total_branches          8809746 # total number of branches executed
sim_cycle                  21931690 # total simulation time in cycles
sim_IPC                      2.2798 # instructions per cycle
sim_CPI                      0.4386 # cycles per instruction
sim_exec_BW                  2.4277 # total instructions (mis-spec + committed) per cycle
sim_IPB                      6.0566 # instruction per branch
Cache_Config_Ratio     <error: variable is undefined> # Cache_Run_Ratio
IFQ_count                  76133989 # cumulative IFQ occupancy
IFQ_fcount                 16913791 # cumulative IFQ full count
ifq_occupancy                3.4714 # avg IFQ occupancy (insn's)
ifq_rate                     2.4277 # avg IFQ dispatch rate (insn/cycle)
ifq_latency                  1.4299 # avg IFQ occupant latency (cycle's)
ifq_full                     0.7712 # fraction of time (cycle's) IFQ was full
RUU_count                 301288064 # cumulative RUU occupancy
RUU_fcount                 11417560 # cumulative RUU full count
ruu_occupancy               13.7376 # avg RUU occupancy (insn's)
ruu_rate                     2.4277 # avg RUU dispatch rate (insn/cycle)
ruu_latency                  5.6587 # avg RUU occupant latency (cycle's)
ruu_full                     0.5206 # fraction of time (cycle's) RUU was full
LSQ_count                 105944109 # cumulative LSQ occupancy
LSQ_fcount                  2531522 # cumulative LSQ full count
lsq_occupancy                4.8306 # avg LSQ occupancy (insn's)
lsq_rate                     2.4277 # avg LSQ dispatch rate (insn/cycle)
lsq_latency                  1.9898 # avg LSQ occupant latency (cycle's)
lsq_full                     0.1154 # fraction of time (cycle's) LSQ was full
sim_slip                  459439139 # total number of slip cycles
avg_sim_slip                 9.1888 # the average slip between issue and retirement
bpred_bimod.lookups         8989342 # total number of bpred lookups
bpred_bimod.updates         8255497 # total number of updates
bpred_bimod.addr_hits       7912689 # total number of address-predicted hits
bpred_bimod.dir_hits        7912826 # total number of direction-predicted hits (includes addr-hits)
bpred_bimod.misses           342671 # total number of misses
bpred_bimod.jr_hits         1367533 # total number of address-predicted hits for JR's
bpred_bimod.jr_seen         1382532 # total number of JR's seen
bpred_bimod.jr_non_ras_hits.PP       124882 # total number of address-predicted hits for non-RAS JR's
bpred_bimod.jr_non_ras_seen.PP       139874 # total number of non-RAS JR's seen
bpred_bimod.bpred_addr_rate    0.9585 # branch address-prediction rate (i.e., addr-hits/updates)
bpred_bimod.bpred_dir_rate    0.9585 # branch direction-prediction rate (i.e., all-hits/updates)
bpred_bimod.bpred_jr_rate    0.9892 # JR address-prediction rate (i.e., JR addr-hits/JRs seen)
bpred_bimod.bpred_jr_non_ras_rate.PP    0.8928 # non-RAS JR addr-pred rate (ie, non-RAS JR hits/JRs seen)
bpred_bimod.retstack_pushes      1303213 # total number of address pushed onto ret-addr stack
bpred_bimod.retstack_pops      1259968 # total number of address popped off of ret-addr stack
bpred_bimod.used_ras.PP      1242658 # total number of RAS predictions used
bpred_bimod.ras_hits.PP      1242651 # total number of RAS hits
bpred_bimod.ras_rate.PP    1.0000 # RAS prediction rate (i.e., RAS hits/used RAS)
il1.reconfigurations             14 # total number of reconfigurations
il1.tournaments                 411 # total number of tournaments
il1. Power-Saving      54205522.0000 # Power Saving 
il1. Smaller Cache Cnt      54205521 # SCC 
il1. Largerer Cache Cnt             0 # LCC 
il1.accesses               54344787 # total number of accesses
il1.hits                   54344447 # total number of hits
il1.misses                      340 # total number of misses
il1.mnm_misses                    0 # total number MNM of misses
il1.replacements                  0 # total number of replacements
il1.writebacks                    0 # total number of writebacks
il1.invalidations                 0 # total number of invalidations
il1.miss_rate                0.0000 # miss rate (i.e., misses/ref)
il1.repl_rate                0.0000 # replacement rate (i.e., repls/ref)
il1.wb_rate                  0.0000 # writeback rate (i.e., wrbks/ref)
il1.inv_rate                 0.0000 # invalidation rate (i.e., invs/ref)
dl1.accesses               17976443 # total number of accesses
dl1.hits                   17969223 # total number of hits
dl1.misses                     7220 # total number of misses
dl1.mnm_misses                    0 # total number MNM of misses
dl1.replacements                  0 # total number of replacements
dl1.writebacks                    0 # total number of writebacks
dl1.invalidations                 0 # total number of invalidations
dl1.miss_rate                0.0004 # miss rate (i.e., misses/ref)
dl1.repl_rate                0.0000 # replacement rate (i.e., repls/ref)
dl1.wb_rate                  0.0000 # writeback rate (i.e., wrbks/ref)
dl1.inv_rate                 0.0000 # invalidation rate (i.e., invs/ref)
dl2.accesses                   7560 # total number of accesses
dl2.hits                       3725 # total number of hits
dl2.misses                     3835 # total number of misses
dl2.mnm_misses                    0 # total number MNM of misses
dl2.replacements                279 # total number of replacements
dl2.writebacks                    0 # total number of writebacks
dl2.invalidations                 0 # total number of invalidations
dl2.miss_rate                0.5073 # miss rate (i.e., misses/ref)
dl2.repl_rate                0.0369 # replacement rate (i.e., repls/ref)
dl2.wb_rate                  0.0000 # writeback rate (i.e., wrbks/ref)
dl2.inv_rate                 0.0000 # invalidation rate (i.e., invs/ref)
dl3.accesses                   3835 # total number of accesses
dl3.hits                          0 # total number of hits
dl3.misses                     3835 # total number of misses
dl3.mnm_misses                    0 # total number MNM of misses
dl3.replacements                  0 # total number of replacements
dl3.writebacks                    0 # total number of writebacks
dl3.invalidations                 0 # total number of invalidations
dl3.miss_rate                1.0000 # miss rate (i.e., misses/ref)
dl3.repl_rate                0.0000 # replacement rate (i.e., repls/ref)
dl3.wb_rate                  0.0000 # writeback rate (i.e., wrbks/ref)
dl3.inv_rate                 0.0000 # invalidation rate (i.e., invs/ref)
itlb.accesses              54344787 # total number of accesses
itlb.hits                  54344768 # total number of hits
itlb.misses                      19 # total number of misses
itlb.mnm_misses                   0 # total number MNM of misses
itlb.replacements                 0 # total number of replacements
itlb.writebacks                   0 # total number of writebacks
itlb.invalidations                0 # total number of invalidations
itlb.miss_rate               0.0000 # miss rate (i.e., misses/ref)
itlb.repl_rate               0.0000 # replacement rate (i.e., repls/ref)
itlb.wb_rate                 0.0000 # writeback rate (i.e., wrbks/ref)
itlb.inv_rate                0.0000 # invalidation rate (i.e., invs/ref)
dtlb.accesses              18155190 # total number of accesses
dtlb.hits                  18155117 # total number of hits
dtlb.misses                      73 # total number of misses
dtlb.mnm_misses                   0 # total number MNM of misses
dtlb.replacements                 0 # total number of replacements
dtlb.writebacks                   0 # total number of writebacks
dtlb.invalidations                0 # total number of invalidations
dtlb.miss_rate               0.0000 # miss rate (i.e., misses/ref)
dtlb.repl_rate               0.0000 # replacement rate (i.e., repls/ref)
dtlb.wb_rate                 0.0000 # writeback rate (i.e., wrbks/ref)
dtlb.inv_rate                0.0000 # invalidation rate (i.e., invs/ref)
sim_invalid_addrs                 0 # total non-speculative bogus addresses seen (debug var)
ld_text_base           0x0120000000 # program text (code) segment base
ld_text_size                 253952 # program text (code) size in bytes
ld_data_base           0x0140000000 # program initialized data segment base
ld_data_size                  76704 # program init'ed `.data' and uninit'ed `.bss' size in bytes
ld_stack_base          0x011ff9b000 # program stack segment base (highest address in stack)
ld_stack_size                 16384 # program initial stack size
ld_prog_entry          0x012000d040 # program entry point (initial PC)
ld_environ_base        0x011ff97000 # program environment base address address
ld_target_big_endian              0 # target executable endian-ness, non-zero if big endian
mem.page_count                  195 # total number of pages allocated
mem.page_mem                  1560k # total size of memory pages allocated
mem.ptab_misses             2614225 # total first level page table misses
mem.ptab_accesses         522983392 # total page table accesses
mem.ptab_miss_rate           0.0050 # first level page table miss rate

