sim-outorder: SimpleScalar/Alpha Tool Set version 3.0 of August, 2003.
Copyright (c) 1994-2003 by Todd M. Austin, Ph.D. and SimpleScalar, LLC.
All Rights Reserved. This version of SimpleScalar is licensed for academic
non-commercial use.  No portion of this work may be used by any commercial
entity, or for any commercial purpose, without the prior written permission
of SimpleScalar, LLC (info@simplescalar.com).

warning: section `.comment' ignored...
sim: command line: /home/jai/Desktop/simplescalar/simplesim-RMNM/sim-outorder -cache:il1 il1:128:32:8:l -cache:dl1 dl1:128:32:1:l -cache:dl2 dl2:512:64:2:l -cache:dl3 dl3:1024:64:4:l -max:inst 50000000 -fastfwd 20000000 -redir:sim cache_MNMR_3.txt ../../spec2000binaries/equake00.peak.ev6 

sim: simulation started @ Sun Dec  6 16:39:46 2015, options follow:

sim-outorder: This simulator implements a very detailed out-of-order issue
superscalar processor with a two-level memory system and speculative
execution support.  This simulator is a performance simulator, tracking the
latency of all pipeline operations.

# -config                     # load configuration from a file
# -dumpconfig                 # dump configuration to a file
# -h                    false # print help message    
# -v                    false # verbose operation     
# -d                    false # enable debug message  
# -i                    false # start in Dlite debugger
-seed                       1 # random number generator seed (0 for timer seed)
# -q                    false # initialize and terminate immediately
# -chkpt               <null> # restore EIO trace execution from <fname>
# -redir:sim     cache_MNMR_3.txt # redirect simulator output to file (non-interactive only)
# -redir:prog          <null> # redirect simulated program output to file
-nice                       0 # simulator scheduling priority
-max:inst            50000000 # maximum number of inst's to execute
-fastfwd             20000000 # number of insts skipped before timing starts
# -ptrace              <null> # generate pipetrace, i.e., <fname|stdout|stderr> <range>
-fetch:ifqsize              4 # instruction fetch queue size (in insts)
-fetch:mplat                3 # extra branch mis-prediction latency
-fetch:speed                1 # speed of front-end of machine relative to execution core
-bpred                  bimod # branch predictor type {nottaken|taken|perfect|bimod|2lev|comb}
-bpred:bimod     2048 # bimodal predictor config (<table size>)
-bpred:2lev      1 1024 8 0 # 2-level predictor config (<l1size> <l2size> <hist_size> <xor>)
-bpred:comb      1024 # combining predictor config (<meta_table_size>)
-bpred:ras                  8 # return address stack size (0 for no return stack)
-bpred:btb       512 4 # BTB config (<num_sets> <associativity>)
# -bpred:spec_update       <null> # speculative predictors update in {ID|WB} (default non-spec)
-decode:width               4 # instruction decode B/W (insts/cycle)
-issue:width                4 # instruction issue B/W (insts/cycle)
-issue:inorder          false # run pipeline with in-order issue
-issue:wrongpath         true # issue instructions down wrong execution paths
-commit:width               4 # instruction commit B/W (insts/cycle)
-ruu:size                  16 # register update unit (RUU) size
-lsq:size                   8 # load/store queue (LSQ) size
-cache:dl1       dl1:128:32:1:l # l1 data cache config, i.e., {<config>|none}
-cache:dl1lat               1 # l1 data cache hit latency (in cycles)
-cache:dl2       dl2:512:64:2:l # l2 data cache config, i.e., {<config>|none}
-cache:dl2lat               6 # l2 data cache hit latency (in cycles)
-cache:dl3       dl3:1024:64:4:l # l3 data cache config, i.e., {<config>|none}
-cache:dl3lat              10 # l3 data cache hit latency (in cycles)
-cache:il1       il1:128:32:8:l # l1 inst cache config, i.e., {<config>|dl1|dl2|none}
-cache:il1lat               1 # l1 instruction cache hit latency (in cycles)
-cache:il2                dl2 # l2 instruction cache config, i.e., {<config>|dl2|none}
-cache:il2lat               6 # ../../spec2000binaries/equake00.peak.ev6: Reading nodes.
l2 instruction cache hit latency (in cycles)
-cache:il3                dl3 # l3 instruction cache config, i.e., {<config>|dl3|none}
-cache:il3lat              10 # l3 instruction cache hit latency (in cycles)
-cache:flush            false # flush caches on system calls
-cache:icompress        false # convert 64-bit inst addresses to 32-bit inst equivalents
-mem:lat         18 2 # memory access latency (<first_chunk> <inter_chunk>)
-mem:width                  8 # memory access bus width (in bytes)
-tlb:itlb        itlb:16:4096:4:l # instruction TLB config, i.e., {<config>|none}
-tlb:dtlb        dtlb:32:4096:4:l # data TLB config, i.e., {<config>|none}
-tlb:lat                   30 # inst/data TLB miss latency (in cycles)
-res:ialu                   4 # total number of integer ALU's available
-res:imult                  1 # total number of integer multiplier/dividers available
-res:memport                2 # total number of memory system ports available (to CPU)
-res:fpalu                  4 # total number of floating point ALU's available
-res:fpmult                 1 # total number of floating point multiplier/dividers available
# -pcstat              <null> # profile stat(s) against text addr's (mult uses ok)
-bugcompat              false # operate in backward-compatible bugs mode (for testing only)

  Pipetrace range arguments are formatted as follows:

    {{@|#}<start>}:{{@|#|+}<end>}

  Both ends of the range are optional, if neither are specified, the entire
  execution is traced.  Ranges that start with a `@' designate an address
  range to be traced, those that start with an `#' designate a cycle count
  range.  All other range values represent an instruction count range.  The
  second argument, if specified with a `+', indicates a value relative
  to the first argument, e.g., 1000:+100 == 1000:1100.  Program symbols may
  be used in all contexts.

    Examples:   -ptrace FOO.trc #0:#1000
                -ptrace BAR.trc @2000:
                -ptrace BLAH.trc :1500
                -ptrace UXXE.trc :
                -ptrace FOOBAR.trc @main:+278

  Branch predictor configuration examples for 2-level predictor:
    Configurations:   N, M, W, X
      N   # entries in first level (# of shift register(s))
      W   width of shift register(s)
      M   # entries in 2nd level (# of counters, or other FSM)
      X   (yes-1/no-0) xor history and address for 2nd level index
    Sample predictors:
      GAg     : 1, W, 2^W, 0
      GAp     : 1, W, M (M > 2^W), 0
      PAg     : N, W, 2^W, 0
      PAp     : N, W, M (M == 2^(N+W)), 0
      gshare  : 1, W, 2^W, 1
  Predictor `comb' combines a bimodal and a 2-level predictor.

  The cache config parameter <config> has the following format:

    <name>:<nsets>:<bsize>:<assoc>:<repl>

    <name>   - name of the cache being defined
    <nsets>  - number of sets in the cache
    <bsize>  - block size of the cache
    <assoc>  - associativity of the cache
    <repl>   - block replacement strategy, 'l'-LRU, 'f'-FIFO, 'r'-random

    Examples:   -cache:dl1 dl1:4096:32:1:l
                -dtlb dtlb:128:4096:32:r

  Cache levels can be unified by pointing a level of the instruction cache
  hierarchy at the data cache hiearchy using the "dl1" and "dl2" cache
  configuration arguments.  Most sensible combinations are supported, e.g.,

    A unified l2 cache (il2 is pointed at dl2):
      -cache:il1 il1:128:64:1:l -cache:il2 dl2
      -cache:dl1 dl1:256:32:1:l -cache:dl2 ul2:1024:64:2:l

    Or, a fully unified cache hierarchy (il1 pointed at dl1):
      -cache:il1 dl1
      -cache:dl1 ul1:256:32:1:l -cache:dl2 ul2:1024:64:2:l



sim: ** fast forwarding 20000000 insts **
sim: ** starting performance simulation **

sim: ** simulation statistics **
sim_num_insn               50000000 # total number of instructions committed
sim_num_refs               17683714 # total number of loads and stores committed
sim_num_loads              13430503 # total number of loads committed
sim_num_stores         4253211.0000 # total number of stores committed
sim_num_branches            8255502 # total number of branches committed
sim_elapsed_time                 51 # total simulation time in seconds
sim_inst_rate           980392.1569 # simulation speed (in insts/sec)
sim_total_insn             53280633 # total number of instructions executed
sim_total_refs             18689177 # total number of loads and stores executed
sim_total_loads            14274176 # total number of loads executed
sim_total_stores       4415001.0000 # total number of stores executed
sim_total_branches          8815905 # total number of branches executed
sim_cycle                  24121937 # total simulation time in cycles
sim_IPC                      2.0728 # instructions per cycle
sim_CPI                      0.4824 # cycles per instruction
sim_exec_BW                  2.2088 # total instructions (mis-spec + committed) per cycle
sim_IPB                      6.0566 # instruction per branch
IFQ_count                  84816742 # cumulative IFQ occupancy
IFQ_fcount                 19145688 # cumulative IFQ full count
ifq_occupancy                3.5162 # avg IFQ occupancy (insn's)
ifq_rate                     2.2088 # avg IFQ dispatch rate (insn/cycle)
ifq_latency                  1.5919 # avg IFQ occupant latency (cycle's)
ifq_full                     0.7937 # fraction of time (cycle's) IFQ was full
RUU_count                 334972606 # cumulative RUU occupancy
RUU_fcount                 13256540 # cumulative RUU full count
ruu_occupancy               13.8866 # avg RUU occupancy (insn's)
ruu_rate                     2.2088 # avg RUU dispatch rate (insn/cycle)
ruu_latency                  6.2869 # avg RUU occupant latency (cycle's)
ruu_full                     0.5496 # fraction of time (cycle's) RUU was full
LSQ_count                 119785924 # cumulative LSQ occupancy
LSQ_fcount                  3190905 # cumulative LSQ full count
lsq_occupancy                4.9659 # avg LSQ occupancy (insn's)
lsq_rate                     2.2088 # avg LSQ dispatch rate (insn/cycle)
lsq_latency                  2.2482 # avg LSQ occupant latency (cycle's)
lsq_full                     0.1323 # fraction of time (cycle's) LSQ was full
sim_slip                  502859675 # total number of slip cycles
avg_sim_slip                10.0572 # the average slip between issue and retirement
bpred_bimod.lookups         8994362 # total number of bpred lookups
bpred_bimod.updates         8255497 # total number of updates
bpred_bimod.addr_hits       7912689 # total number of address-predicted hits
bpred_bimod.dir_hits        7912826 # total number of direction-predicted hits (includes addr-hits)
bpred_bimod.misses           342671 # total number of misses
bpred_bimod.jr_hits         1367533 # total number of address-predicted hits for JR's
bpred_bimod.jr_seen         1382532 # total number of JR's seen
bpred_bimod.jr_non_ras_hits.PP       124882 # total number of address-predicted hits for non-RAS JR's
bpred_bimod.jr_non_ras_seen.PP       139874 # total number of non-RAS JR's seen
bpred_bimod.bpred_addr_rate    0.9585 # branch address-prediction rate (i.e., addr-hits/updates)
bpred_bimod.bpred_dir_rate    0.9585 # branch direction-prediction rate (i.e., all-hits/updates)
bpred_bimod.bpred_jr_rate    0.9892 # JR address-prediction rate (i.e., JR addr-hits/JRs seen)
bpred_bimod.bpred_jr_non_ras_rate.PP    0.8928 # non-RAS JR addr-pred rate (ie, non-RAS JR hits/JRs seen)
bpred_bimod.retstack_pushes      1308204 # total number of address pushed onto ret-addr stack
bpred_bimod.retstack_pops      1259826 # total number of address popped off of ret-addr stack
bpred_bimod.used_ras.PP      1242658 # total number of RAS predictions used
bpred_bimod.ras_hits.PP      1242651 # total number of RAS hits
bpred_bimod.ras_rate.PP    1.0000 # RAS prediction rate (i.e., RAS hits/used RAS)
il1.accesses               54384907 # total number of accesses
il1.hits                   54384566 # total number of hits
il1.misses                      341 # total number of misses
il1.mnm_misses                    0 # total number MNM of misses
il1.true_mnm_misses               0 # total number TRUE MNM of misses
il1.replacements                  0 # total number of replacements
il1.writebacks                    0 # total number of writebacks
il1.invalidations                 0 # total number of invalidations
il1.miss_rate                0.0000 # miss rate (i.e., misses/ref)
il1.repl_rate                0.0000 # replacement rate (i.e., repls/ref)
il1.wb_rate                  0.0000 # writeback rate (i.e., wrbks/ref)
il1.inv_rate                 0.0000 # invalidation rate (i.e., invs/ref)
dl1.accesses               18034439 # total number of accesses
dl1.hits                   17234287 # total number of hits
dl1.misses                   800152 # total number of misses
dl1.mnm_misses                    0 # total number MNM of misses
dl1.true_mnm_misses               0 # total number TRUE MNM of misses
dl1.replacements             800024 # total number of replacements
dl1.writebacks               234541 # total number of writebacks
dl1.invalidations                 0 # total number of invalidations
dl1.miss_rate                0.0444 # miss rate (i.e., misses/ref)
dl1.repl_rate                0.0444 # replacement rate (i.e., repls/ref)
dl1.wb_rate                  0.0130 # writeback rate (i.e., wrbks/ref)
dl1.inv_rate                 0.0000 # invalidation rate (i.e., invs/ref)
dl2.accesses                1035034 # total number of accesses
dl2.hits                    1030890 # total number of hits
dl2.misses                     4144 # total number of misses
dl2.mnm_misses                  308 # total number MNM of misses
dl2.true_mnm_misses             308 # total number TRUE MNM of misses
dl2.replacements               3120 # total number of replacements
dl2.writebacks                 2184 # total number of writebacks
dl2.invalidations                 0 # total number of invalidations
dl2.miss_rate                0.0040 # miss rate (i.e., misses/ref)
dl2.repl_rate                0.0030 # replacement rate (i.e., repls/ref)
dl2.wb_rate                  0.0021 # writeback rate (i.e., wrbks/ref)
dl2.inv_rate                 0.0000 # invalidation rate (i.e., invs/ref)
dl3.accesses                   6328 # total number of accesses
dl3.hits                       2491 # total number of hits
dl3.misses                     3837 # total number of misses
dl3.mnm_misses                    1 # total number MNM of misses
dl3.true_mnm_misses               1 # total number TRUE MNM of misses
dl3.replacements                281 # total number of replacements
dl3.writebacks                   91 # total number of writebacks
dl3.invalidations                 0 # total number of invalidations
dl3.miss_rate                0.6064 # miss rate (i.e., misses/ref)
dl3.repl_rate                0.0444 # replacement rate (i.e., repls/ref)
dl3.wb_rate                  0.0144 # writeback rate (i.e., wrbks/ref)
dl3.inv_rate                 0.0000 # invalidation rate (i.e., invs/ref)
itlb.accesses              54384907 # total number of accesses
itlb.hits                  54384888 # total number of hits
itlb.misses                      19 # total number of misses
itlb.mnm_misses                   0 # total number MNM of misses
itlb.true_mnm_misses              0 # total number TRUE MNM of misses
itlb.replacements                 0 # total number of replacements
itlb.writebacks                   0 # total number of writebacks
itlb.invalidations                0 # total number of invalidations
itlb.miss_rate               0.0000 # miss rate (i.e., misses/ref)
itlb.repl_rate               0.0000 # replacement rate (i.e., repls/ref)
itlb.wb_rate                 0.0000 # writeback rate (i.e., wrbks/ref)
itlb.inv_rate                0.0000 # invalidation rate (i.e., invs/ref)
dtlb.accesses              18214418 # total number of accesses
dtlb.hits                  18214345 # total number of hits
dtlb.misses                      73 # total number of misses
dtlb.mnm_misses                   0 # total number MNM of misses
dtlb.true_mnm_misses              0 # total number TRUE MNM of misses
dtlb.replacements                 0 # total number of replacements
dtlb.writebacks                   0 # total number of writebacks
dtlb.invalidations                0 # total number of invalidations
dtlb.miss_rate               0.0000 # miss rate (i.e., misses/ref)
dtlb.repl_rate               0.0000 # replacement rate (i.e., repls/ref)
dtlb.wb_rate                 0.0000 # writeback rate (i.e., wrbks/ref)
dtlb.inv_rate                0.0000 # invalidation rate (i.e., invs/ref)
sim_invalid_addrs                 0 # total non-speculative bogus addresses seen (debug var)
ld_text_base           0x0120000000 # program text (code) segment base
ld_text_size                 253952 # program text (code) size in bytes
ld_data_base           0x0140000000 # program initialized data segment base
ld_data_size                  76704 # program init'ed `.data' and uninit'ed `.bss' size in bytes
ld_stack_base          0x011ff9b000 # program stack segment base (highest address in stack)
ld_stack_size                 16384 # program initial stack size
ld_prog_entry          0x012000d040 # program entry point (initial PC)
ld_environ_base        0x011ff97000 # program environment base address address
ld_target_big_endian              0 # target executable endian-ness, non-zero if big endian
mem.page_count                  195 # total number of pages allocated
mem.page_mem                  1560k # total size of memory pages allocated
mem.ptab_misses             2627301 # total first level page table misses
mem.ptab_accesses         523126906 # total page table accesses
mem.ptab_miss_rate           0.0050 # first level page table miss rate

