sim-outorder: SimpleScalar/Alpha Tool Set version 3.0 of August, 2003.
Copyright (c) 1994-2003 by Todd M. Austin, Ph.D. and SimpleScalar, LLC.
All Rights Reserved. This version of SimpleScalar is licensed for academic
non-commercial use.  No portion of this work may be used by any commercial
entity, or for any commercial purpose, without the prior written permission
of SimpleScalar, LLC (info@simplescalar.com).

warning: section `.comment' ignored...
sim: command line: /home/jai/Desktop/simplescalar/simplesim-RMNM/sim-outorder -cache:il1 il1:128:32:8:l -cache:dl1 dl1:128:32:1:l -cache:dl2 dl2:512:64:2:l -cache:dl3 dl3:1024:64:4:l -max:inst 50000000 -fastfwd 20000000 -redir:sim cache_RMNM-FoR_Flex_Out.txt ../../spec2000binaries/vortex00.peak.ev6 vortex.lgred.raw 

sim: simulation started @ Thu Dec 10 09:51:02 2015, options follow:

sim-outorder: This simulator implements a very detailed out-of-order issue
superscalar processor with a two-level memory system and speculative
execution support.  This simulator is a performance simulator, tracking the
latency of all pipeline operations.

# -config                     # load configuration from a file
# -dumpconfig                 # dump configuration to a file
# -h                    false # print help message    
# -v                    false # verbose operation     
# -d                    false # enable debug message  
# -i                    false # start in Dlite debugger
-seed                       1 # random number generator seed (0 for timer seed)
# -q                    false # initialize and terminate immediately
# -chkpt               <null> # restore EIO trace execution from <fname>
# -redir:sim     cache_RMNM-FoR_Flex_Out.txt # redirect simulator output to file (non-interactive only)
# -redir:prog          <null> # redirect simulated program output to file
-nice                       0 # simulator scheduling priority
-max:inst            50000000 # maximum number of inst's to execute
-fastfwd             20000000 # number of insts skipped before timing starts
# -ptrace              <null> # generate pipetrace, i.e., <fname|stdout|stderr> <range>
-fetch:ifqsize              4 # instruction fetch queue size (in insts)
-fetch:mplat                3 # extra branch mis-prediction latency
-fetch:speed                1 # speed of front-end of machine relative to execution core
-bpred                  bimod # branch predictor type {nottaken|taken|perfect|bimod|2lev|comb}
-bpred:bimod     2048 # bimodal predictor config (<table size>)
-bpred:2lev      1 1024 8 0 # 2-level predictor config (<l1size> <l2size> <hist_size> <xor>)
-bpred:comb      1024 # combining predictor config (<meta_table_size>)
-bpred:ras                  8 # return address stack size (0 for no return stack)
-bpred:btb       512 4 # BTB config (<num_sets> <associativity>)
# -bpred:spec_update       <null> # speculative predictors update in {ID|WB} (default non-spec)
-decode:width               4 # instruction decode B/W (insts/cycle)
-issue:width                4 # instruction issue B/W (insts/cycle)
-issue:inorder          false # run pipeline with in-order issue
-issue:wrongpath         true # issue instructions down wrong execution paths
-commit:width               4 # instruction commit B/W (insts/cycle)
-ruu:size                  16 # register update unit (RUU) size
-lsq:size                   8 # load/store queue (LSQ) size
-cache:dl1       dl1:128:32:1:l # l1 data cache config, i.e., {<config>|none}
-cache:dl1lat               1 # l1 data cache hit latency (in cycles)
-cache:dl2       dl2:512:64:2:l # l2 data cache config, i.e., {<config>|none}
-cache:dl2lat               6 # l2 data cache hit latency (in cycles)
-cache:dl3       dl3:1024:64:4:l # l3 data cache config, i.e., {<config>|none}
-cache:dl3lat              10 # l3 data cache hit latency (in cycles)
-cache:il1       il1:128:32:8:l # l1 inst cache config, i.e., {<config>|dl1|dl2|none}
-cache:il1lat               1 # l1 instruction cache hit latency (in cycles)
-cache:il2                dl2 # l2 instruction cache config, i.e., {<config>|dl2|none}
-cache:il2lat               6 # l2 instruction cache hit latency (in cycles)
-cache:il3                dl3 # l3 instruction cache config, i.e., {<config>|dl3|none}
-cache:il3lat              10 # l3 instruction cache hit latency (in cycles)
-cache:flush            false # flush caches on system calls
-cache:icompress        false # convert 64-bit inst addresses to 32-bit inst equivalents
-mem:lat         18 2 # memory access latency (<first_chunk> <inter_chunk>)
-mem:width                  8 # memory access bus width (in bytes)
-tlb:itlb        itlb:16:4096:4:l # instruction TLB config, i.e., {<config>|none}
-tlb:dtlb        dtlb:32:4096:4:l # data TLB config, i.e., {<config>|none}
-tlb:lat                   30 # inst/data TLB miss latency (in cycles)
-res:ialu                   4 # total number of integer ALU's available
-res:imult                  1 # total number of integer multiplier/dividers available
-res:memport                2 # total number of memory system ports available (to CPU)
-res:fpalu                  4 # total number of floating point ALU's available
-res:fpmult                 1 # total number of floating point multiplier/dividers available
# -pcstat              <null> # profile stat(s) against text addr's (mult uses ok)
-bugcompat              false # operate in backward-compatible bugs mode (for testing only)

  Pipetrace range arguments are formatted as follows:

    {{@|#}<start>}:{{@|#|+}<end>}

  Both ends of the range are optional, if neither are specified, the entire
  execution is traced.  Ranges that start with a `@' designate an address
  range to be traced, those that start with an `#' designate a cycle count
  range.  All other range values represent an instruction count range.  The
  second argument, if specified with a `+', indicates a value relative
  to the first argument, e.g., 1000:+100 == 1000:1100.  Program symbols may
  be used in all contexts.

    Examples:   -ptrace FOO.trc #0:#1000
                -ptrace BAR.trc @2000:
                -ptrace BLAH.trc :1500
                -ptrace UXXE.trc :
                -ptrace FOOBAR.trc @main:+278

  Branch predictor configuration examples for 2-level predictor:
    Configurations:   N, M, W, X
      N   # entries in first level (# of shift register(s))
      W   width of shift register(s)
      M   # entries in 2nd level (# of counters, or other FSM)
      X   (yes-1/no-0) xor history and address for 2nd level index
    Sample predictors:
      GAg     : 1, W, 2^W, 0
      GAp     : 1, W, M (M > 2^W), 0
      PAg     : N, W, 2^W, 0
      PAp     : N, W, M (M == 2^(N+W)), 0
      gshare  : 1, W, 2^W, 1
  Predictor `comb' combines a bimodal and a 2-level predictor.

  The cache config parameter <config> has the following format:

    <name>:<nsets>:<bsize>:<assoc>:<repl>

    <name>   - name of the cache being defined
    <nsets>  - number of sets in the cache
    <bsize>  - block size of the cache
    <assoc>  - associativity of the cache
    <repl>   - block replacement strategy, 'l'-LRU, 'f'-FIFO, 'r'-random

    Examples:   -cache:dl1 dl1:4096:32:1:l
                -dtlb dtlb:128:4096:32:r

  Cache levels can be unified by pointing a level of the instruction cache
  hierarchy at the data cache hiearchy using the "dl1" and "dl2" cache
  configuration arguments.  Most sensible combinations are supported, e.g.,

    A unified l2 cache (il2 is pointed at dl2):
      -cache:il1 il1:128:64:1:l -cache:il2 dl2
      -cache:dl1 dl1:256:32:1:l -cache:dl2 ul2:1024:64:2:l

    Or, a fully unified cache hierarchy (il1 pointed at dl1):
      -cache:il1 dl1
      -cache:dl1 ul1:256:32:1:l -cache:dl2 ul2:1024:64:2:l



sim: ** fast forwarding 20000000 insts **
sim: ** starting performance simulation **

sim: ** simulation statistics **
sim_num_insn               50000002 # total number of instructions committed
sim_num_refs               22323253 # total number of loads and stores committed
sim_num_loads              13966694 # total number of loads committed
sim_num_stores         8356559.0000 # total number of stores committed
sim_num_branches            7893820 # total number of branches committed
sim_elapsed_time                148 # total simulation time in seconds
sim_inst_rate           337837.8514 # simulation speed (in insts/sec)
sim_total_insn             51353496 # total number of instructions executed
sim_total_refs             22874259 # total number of loads and stores executed
sim_total_loads            14343656 # total number of loads executed
sim_total_stores       8530603.0000 # total number of stores executed
sim_total_branches          8115071 # total number of branches executed
sim_cycle                  32118767 # total simulation time in cycles
sim_IPC                      1.5567 # instructions per cycle
sim_CPI                      0.6424 # cycles per instruction
sim_exec_BW                  1.5989 # total instructions (mis-spec + committed) per cycle
sim_IPB                      6.3341 # instruction per branch
IFQ_count                 101904086 # cumulative IFQ occupancy
IFQ_fcount                 23757372 # cumulative IFQ full count
ifq_occupancy                3.1727 # avg IFQ occupancy (insn's)
ifq_rate                     1.5989 # avg IFQ dispatch rate (insn/cycle)
ifq_latency                  1.9844 # avg IFQ occupant latency (cycle's)
ifq_full                     0.7397 # fraction of time (cycle's) IFQ was full
RUU_count                 387544160 # cumulative RUU occupancy
RUU_fcount                 12245352 # cumulative RUU full count
ruu_occupancy               12.0660 # avg RUU occupancy (insn's)
ruu_rate                     1.5989 # avg RUU dispatch rate (insn/cycle)
ruu_latency                  7.5466 # avg RUU occupant latency (cycle's)
ruu_full                     0.3813 # fraction of time (cycle's) RUU was full
LSQ_count                 171156140 # cumulative LSQ occupancy
LSQ_fcount                  9019228 # cumulative LSQ full count
lsq_occupancy                5.3289 # avg LSQ occupancy (insn's)
lsq_rate                     1.5989 # avg LSQ dispatch rate (insn/cycle)
lsq_latency                  3.3329 # avg LSQ occupant latency (cycle's)
lsq_full                     0.2808 # fraction of time (cycle's) LSQ was full
sim_slip                  623880468 # total number of slip cycles
avg_sim_slip                12.4776 # the average slip between issue and retirement
bpred_bimod.lookups         8210990 # total number of bpred lookups
bpred_bimod.updates         7893819 # total number of updates
bpred_bimod.addr_hits       7616120 # total number of address-predicted hits
bpred_bimod.dir_hits        7659619 # total number of direction-predicted hits (includes addr-hits)
bpred_bimod.misses           234200 # total number of misses
bpred_bimod.jr_hits          946483 # total number of address-predicted hits for JR's
bpred_bimod.jr_seen          965713 # total number of JR's seen
bpred_bimod.jr_non_ras_hits.PP        12045 # total number of address-predicted hits for non-RAS JR's
bpred_bimod.jr_non_ras_seen.PP        14457 # total number of non-RAS JR's seen
bpred_bimod.bpred_addr_rate    0.9648 # branch address-prediction rate (i.e., addr-hits/updates)
bpred_bimod.bpred_dir_rate    0.9703 # branch direction-prediction rate (i.e., all-hits/updates)
bpred_bimod.bpred_jr_rate    0.9801 # JR address-prediction rate (i.e., JR addr-hits/JRs seen)
bpred_bimod.bpred_jr_non_ras_rate.PP    0.8332 # non-RAS JR addr-pred rate (ie, non-RAS JR hits/JRs seen)
bpred_bimod.retstack_pushes       986129 # total number of address pushed onto ret-addr stack
bpred_bimod.retstack_pops       987700 # total number of address popped off of ret-addr stack
bpred_bimod.used_ras.PP       951256 # total number of RAS predictions used
bpred_bimod.ras_hits.PP       934438 # total number of RAS hits
bpred_bimod.ras_rate.PP    0.9823 # RAS prediction rate (i.e., RAS hits/used RAS)
il1.accesses               52570221 # total number of accesses
il1.hits                   51988775 # total number of hits
il1.misses                   581446 # total number of misses
il1.mnm_misses                    0 # total number MNM of misses
il1.true_mnm_misses               0 # total number TRUE MNM of misses
il1.replacements             580422 # total number of replacements
il1.writebacks                    0 # total number of writebacks
il1.invalidations                 0 # total number of invalidations
il1.miss_rate                0.0111 # miss rate (i.e., misses/ref)
il1.repl_rate                0.0110 # replacement rate (i.e., repls/ref)
il1.wb_rate                  0.0000 # writeback rate (i.e., wrbks/ref)
il1.inv_rate                 0.0000 # invalidation rate (i.e., invs/ref)
dl1.accesses               22169189 # total number of accesses
dl1.hits                   20036341 # total number of hits
dl1.misses                  2132848 # total number of misses
dl1.mnm_misses                    0 # total number MNM of misses
dl1.true_mnm_misses               0 # total number TRUE MNM of misses
dl1.replacements            2132720 # total number of replacements
dl1.writebacks               823322 # total number of writebacks
dl1.invalidations                 0 # total number of invalidations
dl1.miss_rate                0.0962 # miss rate (i.e., misses/ref)
dl1.repl_rate                0.0962 # replacement rate (i.e., repls/ref)
dl1.wb_rate                  0.0371 # writeback rate (i.e., wrbks/ref)
dl1.inv_rate                 0.0000 # invalidation rate (i.e., invs/ref)
dl2.accesses                3537616 # total number of accesses
dl2.hits                    3005875 # total number of hits
dl2.misses                   531741 # total number of misses
dl2.mnm_misses               274296 # total number MNM of misses
dl2.true_mnm_misses          274296 # total number TRUE MNM of misses
dl2.replacements             530717 # total number of replacements
dl2.writebacks               104844 # total number of writebacks
dl2.invalidations                 0 # total number of invalidations
dl2.miss_rate                0.1503 # miss rate (i.e., misses/ref)
dl2.repl_rate                0.1500 # replacement rate (i.e., repls/ref)
dl2.wb_rate                  0.0296 # writeback rate (i.e., wrbks/ref)
dl2.inv_rate                 0.0000 # invalidation rate (i.e., invs/ref)
dl3.accesses                 636585 # total number of accesses
dl3.hits                     540103 # total number of hits
dl3.misses                    96482 # total number of misses
dl3.mnm_misses                24536 # total number MNM of misses
dl3.true_mnm_misses           24536 # total number TRUE MNM of misses
dl3.replacements              92386 # total number of replacements
dl3.writebacks                53294 # total number of writebacks
dl3.invalidations                 0 # total number of invalidations
dl3.miss_rate                0.1516 # miss rate (i.e., misses/ref)
dl3.repl_rate                0.1451 # replacement rate (i.e., repls/ref)
dl3.wb_rate                  0.0837 # writeback rate (i.e., wrbks/ref)
dl3.inv_rate                 0.0000 # invalidation rate (i.e., invs/ref)
itlb.accesses              52570221 # total number of accesses
itlb.hits                  52547410 # total number of hits
itlb.misses                   22811 # total number of misses
itlb.mnm_misses                   0 # total number MNM of misses
itlb.true_mnm_misses              0 # total number TRUE MNM of misses
itlb.replacements             22747 # total number of replacements
itlb.writebacks                   0 # total number of writebacks
itlb.invalidations                0 # total number of invalidations
itlb.miss_rate               0.0004 # miss rate (i.e., misses/ref)
itlb.repl_rate               0.0004 # replacement rate (i.e., repls/ref)
itlb.wb_rate                 0.0000 # writeback rate (i.e., wrbks/ref)
itlb.inv_rate                0.0000 # invalidation rate (i.e., invs/ref)
dtlb.accesses              22436277 # total number of accesses
dtlb.hits                  22389029 # total number of hits
dtlb.misses                   47248 # total number of misses
dtlb.mnm_misses                   0 # total number MNM of misses
dtlb.true_mnm_misses              0 # total number TRUE MNM of misses
dtlb.replacements             47120 # total number of replacements
dtlb.writebacks                   0 # total number of writebacks
dtlb.invalidations                0 # total number of invalidations
dtlb.miss_rate               0.0021 # miss rate (i.e., misses/ref)
dtlb.repl_rate               0.0021 # replacement rate (i.e., repls/ref)
dtlb.wb_rate                 0.0000 # writeback rate (i.e., wrbks/ref)
dtlb.inv_rate                0.0000 # invalidation rate (i.e., invs/ref)
sim_invalid_addrs                 0 # total non-speculative bogus addresses seen (debug var)
ld_text_base           0x0120000000 # program text (code) segment base
ld_text_size                 819200 # program text (code) size in bytes
ld_data_base           0x0140000000 # program initialized data segment base
ld_data_size                 118976 # program init'ed `.data' and uninit'ed `.bss' size in bytes
ld_stack_base          0x011ff9b000 # program stack segment base (highest address in stack)
ld_stack_size                 16384 # program initial stack size
ld_prog_entry          0x0120026a50 # program entry point (initial PC)
ld_environ_base        0x011ff97000 # program environment base address address
ld_target_big_endian              0 # target executable endian-ness, non-zero if big endian
mem.page_count                 1031 # total number of pages allocated
mem.page_mem                  8248k # total size of memory pages allocated
mem.ptab_misses               53752 # total first level page table misses
mem.ptab_accesses         567326814 # total page table accesses
mem.ptab_miss_rate           0.0001 # first level page table miss rate

